REMARK  Name = lig_1.pdb
REMARK  2 active torsions:
REMARK  status: ('A' for Active; 'I' for Inactive)
REMARK    1  A    between atoms: C9_5  and  C14_10
REMARK    2  A    between atoms: C10_6  and  N7_12
REMARK                            x       y       z     vdW  Elec       q    Type
REMARK                         _______ _______ _______ _____ _____    ______ ____
ROOT
ATOM      1  C4  FDH A1101     -15.879 147.726  28.844  0.00  0.00    +0.000 C 
ATOM      2  C5  FDH A1101     -16.972 146.861  28.601  0.00  0.00    +0.000 A 
ATOM      3  C6  FDH A1101     -18.127 147.374  29.230  0.00  0.00    +0.000 A 
ATOM      4  N1  FDH A1101     -15.877 148.851  29.542  0.00  0.00    +0.000 NA
ATOM      5  C9  FDH A1101     -17.413 145.649  27.968  0.00  0.00    +0.000 A 
ATOM      6  N3  FDH A1101     -18.218 148.500  29.954  0.00  0.00    +0.000 NA
ATOM      7  C2  FDH A1101     -17.068 149.200  30.079  0.00  0.00    +0.000 C 
ATOM      8  N7  FDH A1101     -19.142 146.507  28.965  0.00  0.00    +0.000 N 
ATOM      9  N8  FDH A1101     -18.706 145.452  28.193  0.00  0.00    +0.000 NA
ATOM     10  N13 FDH A1101     -17.117 150.326  30.791  0.00  0.00    +0.000 NA
ATOM     11  CL  FDH A1101     -14.341 147.312  28.173  0.00  0.00    +0.000 Cl
ENDROOT
BRANCH   5  12
ATOM     12  C14 FDH A1101     -16.689 144.635  27.144  0.00  0.00    +0.000 A 
ATOM     13  C16 FDH A1101     -15.822 145.045  26.129  0.00  0.00    +0.000 A 
ATOM     14  C17 FDH A1101     -16.234 142.294  26.655  0.00  0.00    +0.000 A 
ATOM     15  C18 FDH A1101     -16.887 143.265  27.397  0.00  0.00    +0.000 A 
ATOM     16  C19 FDH A1101     -15.382 142.732  25.656  0.00  0.00    +0.000 A 
ATOM     17  C20 FDH A1101     -15.164 144.066  25.380  0.00  0.00    +0.000 A 
ATOM     18  N21 FDH A1101     -14.257 144.170  24.324  0.00  0.00    +0.000 NA
ATOM     19  C22 FDH A1101     -13.980 142.924  24.024  0.00  0.00    +0.000 A 
ATOM     20  O23 FDH A1101     -14.618 141.985  24.781  0.00  0.00    +0.000 OA
ATOM     21  N24 FDH A1101     -13.163 142.471  23.083  0.00  0.00    +0.000 NA
ENDBRANCH   5  12
BRANCH   8  22
ATOM     22  C10 FDH A1101     -20.565 146.543  29.371  0.00  0.00    +0.000 C 
ATOM     23  C11 FDH A1101     -21.359 145.472  28.626  0.00  0.00    +0.000 C 
ATOM     24  C12 FDH A1101     -20.693 146.425  30.887  0.00  0.00    +0.000 C 
ENDBRANCH   8  22
TORSDOF 2
