@<TRIPOS>MOLECULE
*****
 18 19 0 0 0
SMALL
GASTEIGER

@<TRIPOS>ATOM
      1 F           1.7015   -2.0700   -2.0107 F       1  UNL1       -0.2090
      2 C           1.3671   -1.9306   -0.6701 C.3     1  UNL1        0.2321
      3 C           2.4181   -2.0190    0.2702 C.3     1  UNL1        0.0324
      4 C           1.7369   -0.5699   -0.0420 C.3     1  UNL1        0.1113
      5 CL          2.0510    0.0641    1.6894 Cl      1  UNL1       -0.1120
      6 C           0.3530    0.0137   -0.3494 C.3     1  UNL1        0.0018
      7 C          -0.6225   -1.0756    0.1094 C.3     1  UNL1        0.0829
      8 C          -2.0011   -0.9206   -0.4543 C.2     1  UNL1       -0.0487
      9 C          -2.6265   -1.8020   -1.2440 C.2     1  UNL1       -0.0201
     10 BR         -4.3588   -1.5815   -1.8712 Br      1  UNL1       -0.0590
     11 O           0.0103   -2.2844   -0.3321 O.3     1  UNL1       -0.3358
     12 H           3.4302   -2.1520   -0.0939 H       1  UNL1        0.0339
     13 H           2.2015   -2.5521    1.1867 H       1  UNL1        0.0339
     14 H           0.2816    0.1794   -1.4337 H       1  UNL1        0.0312
     15 H           0.1524    0.9816    0.1215 H       1  UNL1        0.0312
     16 H          -0.6824   -1.1128    1.2025 H       1  UNL1        0.0642
     17 H          -2.5287   -0.0137   -0.1564 H       1  UNL1        0.0603
     18 H          -2.1701   -2.7299   -1.5687 H       1  UNL1        0.0693
@<TRIPOS>BOND
     1     1     2    1
     2     2     3    1
     3     3     4    1
     4     2     4    1
     5     4     5    1
     6     4     6    1
     7     6     7    1
     8     7     8    1
     9     8     9    2
    10     9    10    1
    11     7    11    1
    12     2    11    1
    13     3    12    1
    14     3    13    1
    15     6    14    1
    16     6    15    1
    17     7    16    1
    18     8    17    1
    19     9    18    1
