REMARK  Name = 
REMARK  1 active torsions:
REMARK  status: ('A' for Active; 'I' for Inactive)
REMARK    1  A    between atoms: C_7  and  C_8
REMARK                            x       y       z     vdW  Elec       q    Type
REMARK                         _______ _______ _______ _____ _____    ______ ____
ROOT
ATOM      1  F   UNL     1       1.480  -2.106  -1.974  0.00  0.00    +0.000 F 
ATOM      2  C   UNL     1       1.260  -1.753  -0.650  0.00  0.00    +0.000 C 
ATOM      3  C   UNL     1       2.384  -1.733   0.211  0.00  0.00    +0.000 C 
ATOM      4  C   UNL     1       1.712  -0.326  -0.267  0.00  0.00    +0.000 C 
ATOM      5 CL   UNL     1       2.181   0.548   1.325  0.00  0.00    +0.000 Cl
ATOM      6  C   UNL     1       0.319   0.250  -0.540  0.00  0.00    +0.000 C 
ATOM      7  C   UNL     1      -0.625  -0.721   0.172  0.00  0.00    +0.000 C 
ATOM      8  O   UNL     1      -0.073  -2.003  -0.155  0.00  0.00    +0.000 OA
ENDROOT
BRANCH   7   9
ATOM      9  C   UNL     1      -2.059  -0.593  -0.243  0.00  0.00    +0.000 C 
ATOM     10  C   UNL     1      -2.790  -1.547  -0.831  0.00  0.00    +0.000 C 
ATOM     11 BR   UNL     1      -4.587  -1.355  -1.257  0.00  0.00    +0.000 Br
ENDBRANCH   7   9
TORSDOF 1
