REMARK  Name = 
REMARK  1 active torsions:
REMARK  status: ('A' for Active; 'I' for Inactive)
REMARK    1  A    between atoms: C_7  and  C_8
REMARK                            x       y       z     vdW  Elec       q    Type
REMARK                         _______ _______ _______ _____ _____    ______ ____
ROOT
ATOM      1  F   UNL     1       1.726  -0.588   1.025  0.00  0.00    +0.000 F 
ATOM      2  C   UNL     1       2.771  -0.100   0.263  0.00  0.00    +0.000 C 
ATOM      3  C   UNL     1       3.494  -1.051  -0.621  0.00  0.00    +0.000 C 
ATOM      4  C   UNL     1       4.169  -0.517   0.618  0.00  0.00    +0.000 C 
ATOM      5 CL   UNL     1       4.444  -1.595   1.968  0.00  0.00    +0.000 Cl
ATOM      6  C   UNL     1       5.005   0.725   0.531  0.00  0.00    +0.000 C 
ATOM      7  C   UNL     1       3.957   1.844   0.637  0.00  0.00    +0.000 C 
ATOM      8  O   UNL     1       2.786   1.317  -0.018  0.00  0.00    +0.000 OA
ENDROOT
BRANCH   7   9
ATOM      9  C   UNL     1       4.398   3.151   0.052  0.00  0.00    +0.000 C 
ATOM     10  C   UNL     1       3.781   3.812  -0.937  0.00  0.00    +0.000 C 
ATOM     11 BR   UNL     1       4.335   5.461  -1.579  0.00  0.00    +0.000 Br
ENDBRANCH   7   9
TORSDOF 1
