REMARK  Name = 
REMARK  1 active torsions:
REMARK  status: ('A' for Active; 'I' for Inactive)
REMARK    1  A    between atoms: C_7  and  C_8
REMARK                            x       y       z     vdW  Elec       q    Type
REMARK                         _______ _______ _______ _____ _____    ______ ____
ROOT
ATOM      1  F   UNL     1       1.808  -0.100  -1.483  0.00  0.00    +0.000 F 
ATOM      2  C   UNL     1       1.502  -0.983  -0.448  0.00  0.00    +0.000 C 
ATOM      3  C   UNL     1       2.601  -1.241   0.422  0.00  0.00    +0.000 C 
ATOM      4  C   UNL     1       1.446  -0.363   0.998  0.00  0.00    +0.000 C 
ATOM      5 CL   UNL     1       1.021  -1.332   2.556  0.00  0.00    +0.000 Cl
ATOM      6  C   UNL     1       0.173   0.386   0.652  0.00  0.00    +0.000 C 
ATOM      7  C   UNL     1      -0.713  -0.700  -0.018  0.00  0.00    +0.000 C 
ATOM      8  O   UNL     1       0.234  -1.629  -0.596  0.00  0.00    +0.000 OA
ENDROOT
BRANCH   7   9
ATOM      9  C   UNL     1      -1.639  -0.134  -1.056  0.00  0.00    +0.000 C 
ATOM     10  C   UNL     1      -1.637  -0.453  -2.356  0.00  0.00    +0.000 C 
ATOM     11 BR   UNL     1      -2.796   0.270  -3.607  0.00  0.00    +0.000 Br
ENDBRANCH   7   9
TORSDOF 1
