REMARK  Name = 
REMARK  8 active torsions:
REMARK  status: ('A' for Active; 'I' for Inactive)
REMARK    1  A    between atoms: C_2  and  C_3
REMARK    2  A    between atoms: C_3  and  O_4
REMARK    3  A    between atoms: O_4  and  C_5
REMARK    4  A    between atoms: N_12  and  C_13
REMARK    5  A    between atoms: C_16  and  N_17
REMARK    6  A    between atoms: C_18  and  C_20
REMARK    7  A    between atoms: C_20  and  O_21
REMARK    8  A    between atoms: O_21  and  C_22
REMARK                            x       y       z     vdW  Elec       q    Type
REMARK                         _______ _______ _______ _____ _____    ______ ____
ROOT
ATOM      1  C   UNL     1       4.303   0.868   0.807  0.00  0.00    +0.000 C 
ATOM      2  C   UNL     1       5.052   0.493  -0.487  0.00  0.00    +0.000 C 
ATOM      3  C   UNL     1       4.835   1.518  -1.606  0.00  0.00    +0.000 C 
ATOM      4  C   UNL     1       5.228   2.937  -1.161  0.00  0.00    +0.000 C 
ATOM      5  C   UNL     1       4.491   3.302   0.135  0.00  0.00    +0.000 C 
ATOM      6  C   UNL     1       4.717   2.271   1.253  0.00  0.00    +0.000 C 
ENDROOT
BRANCH   1   9
ATOM      7  O   UNL     1       2.624  -1.386   0.193  0.00  0.00    +0.000 OA
ATOM      8  C   UNL     1       2.126  -0.280   0.377  0.00  0.00    +0.000 C 
ATOM      9  N   UNL     1       2.850   0.853   0.662  0.00  0.00    +0.000 N 
ATOM     10  H   UNL     1       2.337   1.590   1.130  0.00  0.00    +0.000 HD
BRANCH   8  11
ATOM     11  C   UNL     1       0.633  -0.011   0.227  0.00  0.00    +0.000 C 
BRANCH  11  12
ATOM     12  O   UNL     1      -0.047  -0.041   1.475  0.00  0.00    +0.000 OA
BRANCH  12  13
ATOM     13  C   UNL     1      -1.408   0.117   1.408  0.00  0.00    +0.000 A 
ATOM     14  C   UNL     1      -2.187  -0.055   0.260  0.00  0.00    +0.000 A 
ATOM     15  C   UNL     1      -3.573   0.121   0.308  0.00  0.00    +0.000 A 
ATOM     16  C   UNL     1      -4.186   0.472   1.506  0.00  0.00    +0.000 A 
ATOM     17 CL   UNL     1      -5.891   0.688   1.558  0.00  0.00    +0.000 Cl
ATOM     18  C   UNL     1      -3.425   0.640   2.660  0.00  0.00    +0.000 A 
ATOM     19  C   UNL     1      -2.038   0.454   2.610  0.00  0.00    +0.000 A 
ENDBRANCH  12  13
ENDBRANCH  11  12
ENDBRANCH   8  11
ENDBRANCH   1   9
BRANCH   4  20
ATOM     20  N   UNL     1       6.688   3.026  -1.118  0.00  0.00    +0.000 N 
ATOM     21  C   UNL     1       7.458   3.576  -0.113  0.00  0.00    +0.000 C 
ATOM     22  O   UNL     1       7.032   4.110   0.905  0.00  0.00    +0.000 OA
ATOM     23  H   UNL     1       7.155   2.895  -2.009  0.00  0.00    +0.000 HD
BRANCH  21  24
ATOM     24  C   UNL     1       8.944   3.461  -0.355  0.00  0.00    +0.000 C 
BRANCH  24  25
ATOM     25  O   UNL     1       9.309   4.732  -0.863  0.00  0.00    +0.000 OA
BRANCH  25  26
ATOM     26  C   UNL     1      10.634   4.955  -1.054  0.00  0.00    +0.000 A 
ATOM     27  C   UNL     1      11.658   4.024  -0.843  0.00  0.00    +0.000 A 
ATOM     28  C   UNL     1      12.979   4.373  -1.118  0.00  0.00    +0.000 A 
ATOM     29  C   UNL     1      13.275   5.650  -1.594  0.00  0.00    +0.000 A 
ATOM     30 CL   UNL     1      14.901   6.067  -1.962  0.00  0.00    +0.000 Cl
ATOM     31  C   UNL     1      12.263   6.585  -1.787  0.00  0.00    +0.000 A 
ATOM     32  C   UNL     1      10.943   6.234  -1.512  0.00  0.00    +0.000 A 
ENDBRANCH  25  26
ENDBRANCH  24  25
ENDBRANCH  21  24
ENDBRANCH   4  20
TORSDOF 8
