@<TRIPOS>MOLECULE
*****
 18 19 0 0 0
SMALL
GASTEIGER

@<TRIPOS>ATOM
      1 F           2.0967    0.1889    0.2735 F       1  UNL1       -0.2090
      2 C           1.2665    1.2431    0.6706 C.3     1  UNL1        0.2321
      3 C           1.9490    2.5057    0.5867 C.3     1  UNL1        0.0324
      4 C           0.8464    2.2910   -0.4476 C.3     1  UNL1        0.1113
      5 CL         -0.3509    3.6850   -0.1036 Cl      1  UNL1       -0.1120
      6 C           0.0932    1.2455   -1.2211 C.3     1  UNL1        0.0018
      7 C          -0.7693    0.5747   -0.1130 C.3     1  UNL1        0.0829
      8 C          -0.9507   -0.9021   -0.3252 C.2     1  UNL1       -0.0487
      9 C          -1.9432   -1.4914   -0.9999 C.2     1  UNL1       -0.0201
     10 BR         -3.3354   -0.6430   -1.8785 Br      1  UNL1       -0.0590
     11 O          -0.0175    0.7913    1.1163 O.3     1  UNL1       -0.3358
     12 H           2.9667    2.4968    0.2058 H       1  UNL1        0.0339
     13 H           1.8206    3.2068    1.4018 H       1  UNL1        0.0339
     14 H           0.7886    0.5440   -1.7017 H       1  UNL1        0.0312
     15 H          -0.5333    1.6609   -2.0182 H       1  UNL1        0.0312
     16 H          -1.7284    1.0872    0.0112 H       1  UNL1        0.0642
     17 H          -0.1876   -1.5389    0.1197 H       1  UNL1        0.0603
     18 H          -1.9869   -2.5744   -1.0966 H       1  UNL1        0.0693
@<TRIPOS>BOND
     1     1     2    1
     2     2     3    1
     3     3     4    1
     4     2     4    1
     5     4     5    1
     6     4     6    1
     7     6     7    1
     8     7     8    1
     9     8     9    2
    10     9    10    1
    11     7    11    1
    12     2    11    1
    13     3    12    1
    14     3    13    1
    15     6    14    1
    16     6    15    1
    17     7    16    1
    18     8    17    1
    19     9    18    1
