REMARK  Name = 
REMARK  1 active torsions:
REMARK  status: ('A' for Active; 'I' for Inactive)
REMARK    1  A    between atoms: C_7  and  C_8
REMARK                            x       y       z     vdW  Elec       q    Type
REMARK                         _______ _______ _______ _____ _____    ______ ____
ROOT
ATOM      1  F   UNL     1       0.712  -2.937  -1.902  0.00  0.00    +0.000 F 
ATOM      2  C   UNL     1       0.794  -2.955  -0.512  0.00  0.00    +0.000 C 
ATOM      3  C   UNL     1       2.010  -3.418   0.040  0.00  0.00    +0.000 C 
ATOM      4  C   UNL     1       1.677  -1.839   0.106  0.00  0.00    +0.000 C 
ATOM      5 CL   UNL     1       2.399  -1.601   1.829  0.00  0.00    +0.000 Cl
ATOM      6  C   UNL     1       0.494  -0.868   0.122  0.00  0.00    +0.000 C 
ATOM      7  C   UNL     1      -0.654  -1.682   0.735  0.00  0.00    +0.000 C 
ATOM      8  O   UNL     1      -0.472  -2.992   0.169  0.00  0.00    +0.000 OA
ENDROOT
BRANCH   7   9
ATOM      9  C   UNL     1      -2.009  -1.174   0.351  0.00  0.00    +0.000 C 
ATOM     10  C   UNL     1      -2.941  -0.662   1.167  0.00  0.00    +0.000 C 
ATOM     11 BR   UNL     1      -2.807  -0.422   2.998  0.00  0.00    +0.000 Br
ENDBRANCH   7   9
TORSDOF 1
