REMARK  Name = 
REMARK  1 active torsions:
REMARK  status: ('A' for Active; 'I' for Inactive)
REMARK    1  A    between atoms: C_7  and  C_8
REMARK                            x       y       z     vdW  Elec       q    Type
REMARK                         _______ _______ _______ _____ _____    ______ ____
ROOT
ATOM      1  F   UNL     1       0.528  -2.304  -1.377  0.00  0.00    +0.000 F 
ATOM      2  C   UNL     1       1.036  -1.866  -0.148  0.00  0.00    +0.000 C 
ATOM      3  C   UNL     1       2.469  -1.790  -0.177  0.00  0.00    +0.000 C 
ATOM      4  C   UNL     1       1.740  -0.446  -0.129  0.00  0.00    +0.000 C 
ATOM      5 CL   UNL     1       2.365   0.334   1.446  0.00  0.00    +0.000 Cl
ATOM      6  C   UNL     1       0.457   0.261  -0.485  0.00  0.00    +0.000 C 
ATOM      7  C   UNL     1      -0.581  -0.396   0.476  0.00  0.00    +0.000 C 
ATOM      8  O   UNL     1       0.015  -1.675   0.834  0.00  0.00    +0.000 OA
ENDROOT
BRANCH   7   9
ATOM      9  C   UNL     1      -1.888  -0.669  -0.209  0.00  0.00    +0.000 C 
ATOM     10  C   UNL     1      -3.088  -0.136   0.042  0.00  0.00    +0.000 C 
ATOM     11 BR   UNL     1      -3.491   1.133   1.327  0.00  0.00    +0.000 Br
ENDBRANCH   7   9
TORSDOF 1
