REMARK  Name = 
REMARK  9 active torsions:
REMARK  status: ('A' for Active; 'I' for Inactive)
REMARK    1  A    between atoms: C_2  and  C_3
REMARK    2  A    between atoms: C_3  and  O_4
REMARK    3  A    between atoms: O_4  and  C_5
REMARK    4  A    between atoms: N_12  and  C_13
REMARK    5  A    between atoms: C_16  and  N_17
REMARK    6  A    between atoms: C_18  and  O_19
REMARK    7  A    between atoms: C_18  and  C_20
REMARK    8  A    between atoms: C_20  and  O_21
REMARK    9  A    between atoms: O_21  and  C_22
REMARK                            x       y       z     vdW  Elec       q    Type
REMARK                         _______ _______ _______ _____ _____    ______ ____
ROOT
ATOM      1  C   UNL     1       4.459  -1.225   0.104  0.00  0.00    +0.000 C 
ATOM      2  C   UNL     1       4.936  -2.545  -0.525  0.00  0.00    +0.000 C 
ATOM      3  C   UNL     1       4.721  -2.597  -2.043  0.00  0.00    +0.000 C 
ATOM      4  C   UNL     1       5.247  -1.360  -2.793  0.00  0.00    +0.000 C 
ATOM      5  C   UNL     1       4.780  -0.065  -2.113  0.00  0.00    +0.000 C 
ATOM      6  C   UNL     1       5.130  -0.054  -0.620  0.00  0.00    +0.000 C 
ENDROOT
BRANCH   1   9
ATOM      7  O   UNL     1       2.441  -2.647   1.604  0.00  0.00    +0.000 OA
ATOM      8  C   UNL     1       2.109  -1.810   0.768  0.00  0.00    +0.000 C 
ATOM      9  N   UNL     1       3.007  -1.066   0.036  0.00  0.00    +0.000 N 
ATOM     10  H   UNL     1       2.642  -0.252  -0.440  0.00  0.00    +0.000 HD
BRANCH   8  11
ATOM     11  C   UNL     1       0.647  -1.548   0.383  0.00  0.00    +0.000 C 
BRANCH  11  12
ATOM     12  O   UNL     1      -0.004  -0.627   1.247  0.00  0.00    +0.000 OA
BRANCH  12  13
ATOM     13  C   UNL     1      -1.326  -0.376   0.967  0.00  0.00    +0.000 A 
ATOM     14  C   UNL     1      -2.031  -0.863  -0.139  0.00  0.00    +0.000 A 
ATOM     15  C   UNL     1      -3.376  -0.526  -0.329  0.00  0.00    +0.000 A 
ATOM     16  C   UNL     1      -4.022   0.296   0.592  0.00  0.00    +0.000 A 
ATOM     17 CL   UNL     1      -5.674   0.710   0.350  0.00  0.00    +0.000 Cl
ATOM     18  C   UNL     1      -3.334   0.781   1.700  0.00  0.00    +0.000 A 
ATOM     19  C   UNL     1      -1.989   0.445   1.886  0.00  0.00    +0.000 A 
ENDBRANCH  12  13
ENDBRANCH  11  12
ENDBRANCH   8  11
ENDBRANCH   1   9
BRANCH   4  20
ATOM     20  N   UNL     1       6.706  -1.391  -2.784  0.00  0.00    +0.000 NA
ATOM     21  C   UNL     1       7.406  -0.597  -3.509  0.00  0.00    +0.000 C 
BRANCH  21  22
ATOM     22  O   UNL     1       6.904   0.270  -4.411  0.00  0.00    +0.000 OA
ATOM     23  H   UNL     1       5.951   0.165  -4.528  0.00  0.00    +0.000 HD
ENDBRANCH  21  22
BRANCH  21  24
ATOM     24  C   UNL     1       8.907  -0.508  -3.389  0.00  0.00    +0.000 C 
BRANCH  24  25
ATOM     25  O   UNL     1       9.516  -1.268  -4.421  0.00  0.00    +0.000 OA
BRANCH  25  26
ATOM     26  C   UNL     1      10.883  -1.300  -4.408  0.00  0.00    +0.000 A 
ATOM     27  C   UNL     1      11.709  -0.613  -3.514  0.00  0.00    +0.000 A 
ATOM     28  C   UNL     1      13.099  -0.732  -3.607  0.00  0.00    +0.000 A 
ATOM     29  C   UNL     1      13.661  -1.537  -4.594  0.00  0.00    +0.000 A 
ATOM     30 CL   UNL     1      15.371  -1.681  -4.703  0.00  0.00    +0.000 Cl
ATOM     31  C   UNL     1      12.847  -2.224  -5.491  0.00  0.00    +0.000 A 
ATOM     32  C   UNL     1      11.459  -2.103  -5.396  0.00  0.00    +0.000 A 
ENDBRANCH  25  26
ENDBRANCH  24  25
ENDBRANCH  21  24
ENDBRANCH   4  20
TORSDOF 9
