REMARK  Name = 
REMARK  1 active torsions:
REMARK  status: ('A' for Active; 'I' for Inactive)
REMARK    1  A    between atoms: C_7  and  C_8
REMARK                            x       y       z     vdW  Elec       q    Type
REMARK                         _______ _______ _______ _____ _____    ______ ____
ROOT
ATOM      1  F   UNL     1       1.870   0.991  -0.874  0.00  0.00    +0.000 F 
ATOM      2  C   UNL     1       2.863   0.370  -0.140  0.00  0.00    +0.000 C 
ATOM      3  C   UNL     1       3.688   1.203   0.771  0.00  0.00    +0.000 C 
ATOM      4  C   UNL     1       4.298   0.658  -0.496  0.00  0.00    +0.000 C 
ATOM      5 CL   UNL     1       4.664   1.757  -1.807  0.00  0.00    +0.000 Cl
ATOM      6  C   UNL     1       4.996  -0.670  -0.485  0.00  0.00    +0.000 C 
ATOM      7  C   UNL     1       3.842  -1.676  -0.630  0.00  0.00    +0.000 C 
ATOM      8  O   UNL     1       2.737  -1.058   0.064  0.00  0.00    +0.000 OA
ENDROOT
BRANCH   7   9
ATOM      9  C   UNL     1       3.433  -1.886  -2.062  0.00  0.00    +0.000 C 
ATOM     10  C   UNL     1       3.485  -3.047  -2.718  0.00  0.00    +0.000 C 
ATOM     11 BR   UNL     1       2.970  -3.237  -4.493  0.00  0.00    +0.000 Br
ENDBRANCH   7   9
TORSDOF 1
