REMARK  Name = 
REMARK  1 active torsions:
REMARK  status: ('A' for Active; 'I' for Inactive)
REMARK    1  A    between atoms: C_7  and  C_8
REMARK                            x       y       z     vdW  Elec       q    Type
REMARK                         _______ _______ _______ _____ _____    ______ ____
ROOT
ATOM      1  F   UNL     1       1.849   0.831  -0.874  0.00  0.00    +0.000 F 
ATOM      2  C   UNL     1       2.839   0.202  -0.144  0.00  0.00    +0.000 C 
ATOM      3  C   UNL     1       3.660   1.029   0.776  0.00  0.00    +0.000 C 
ATOM      4  C   UNL     1       4.273   0.491  -0.495  0.00  0.00    +0.000 C 
ATOM      5 CL   UNL     1       4.645   1.602  -1.796  0.00  0.00    +0.000 Cl
ATOM      6  C   UNL     1       4.972  -0.836  -0.490  0.00  0.00    +0.000 C 
ATOM      7  C   UNL     1       3.819  -1.842  -0.633  0.00  0.00    +0.000 C 
ATOM      8  O   UNL     1       2.711  -1.226   0.054  0.00  0.00    +0.000 OA
ENDROOT
BRANCH   7   9
ATOM      9  C   UNL     1       3.414  -2.055  -2.067  0.00  0.00    +0.000 C 
ATOM     10  C   UNL     1       3.462  -3.223  -2.718  0.00  0.00    +0.000 C 
ATOM     11 BR   UNL     1       2.948  -3.417  -4.491  0.00  0.00    +0.000 Br
ENDBRANCH   7   9
TORSDOF 1
