@<TRIPOS>MOLECULE
*****
 18 19 0 0 0
SMALL
GASTEIGER

@<TRIPOS>ATOM
      1 F           1.3782   -1.6941    0.5919 F       1  UNL1       -0.2090
      2 C           1.5223   -0.6848   -0.3726 C.3     1  UNL1        0.2321
      3 C           2.7466    0.0498   -0.0386 C.3     1  UNL1        0.0324
      4 C           1.5250    0.8627    0.0973 C.3     1  UNL1        0.1113
      5 CL          1.5904    2.1920   -1.1730 Cl      1  UNL1       -0.1120
      6 C           0.1801    0.8518    0.7588 C.3     1  UNL1        0.0018
      7 C          -0.6374   -0.1065   -0.1502 C.3     1  UNL1        0.0829
      8 C          -1.8914    0.4681   -0.7354 C.2     1  UNL1       -0.0487
      9 C          -2.1936    0.5466   -2.0351 C.2     1  UNL1       -0.0201
     10 BR         -3.8256    1.1626   -2.6741 Br      1  UNL1       -0.0590
     11 O           0.3147   -0.5704   -1.1449 O.3     1  UNL1       -0.3358
     12 H           3.2427   -0.2384    0.8888 H       1  UNL1        0.0339
     13 H           3.4616    0.2431   -0.8245 H       1  UNL1        0.0339
     14 H           0.2453    0.4617    1.7799 H       1  UNL1        0.0312
     15 H          -0.2650    1.8534    0.8236 H       1  UNL1        0.0312
     16 H          -0.9494   -0.9755    0.4404 H       1  UNL1        0.0642
     17 H          -2.6337    0.7891   -0.0089 H       1  UNL1        0.0603
     18 H          -1.5130    0.2379   -2.8198 H       1  UNL1        0.0693
@<TRIPOS>BOND
     1     2     3    1
     2     3     4    1
     3     2     4    1
     4     4     6    1
     5     6     7    1
     6     8     9    2
     7     9    10    1
     8     7    11    1
     9     2    11    1
    10     1     2    1
    11     4     5    1
    12     7     8    1
    13     3    12    1
    14     3    13    1
    15     6    14    1
    16     6    15    1
    17     7    16    1
    18     8    17    1
    19     9    18    1
