REMARK  Name = 
REMARK  1 active torsions:
REMARK  status: ('A' for Active; 'I' for Inactive)
REMARK    1  A    between atoms: C_7  and  C_8
REMARK                            x       y       z     vdW  Elec       q    Type
REMARK                         _______ _______ _______ _____ _____    ______ ____
ROOT
ATOM      1  F   UNL     1       1.631  -0.836   1.041  0.00  0.00    +0.000 F 
ATOM      2  C   UNL     1       1.677   0.052  -0.044  0.00  0.00    +0.000 C 
ATOM      3  C   UNL     1       2.717   1.035   0.205  0.00  0.00    +0.000 C 
ATOM      4  C   UNL     1       1.330   1.595   0.235  0.00  0.00    +0.000 C 
ATOM      5 CL   UNL     1       1.223   2.796  -1.163  0.00  0.00    +0.000 Cl
ATOM      6  C   UNL     1      -0.056   1.331   0.758  0.00  0.00    +0.000 C 
ATOM      7  C   UNL     1      -0.562   0.173  -0.152  0.00  0.00    +0.000 C 
ATOM      8  O   UNL     1       0.596  -0.194  -0.956  0.00  0.00    +0.000 OA
ENDROOT
BRANCH   7   9
ATOM      9  C   UNL     1      -1.790   0.466  -0.948  0.00  0.00    +0.000 C 
ATOM     10  C   UNL     1      -1.914   0.404  -2.277  0.00  0.00    +0.000 C 
ATOM     11 BR   UNL     1      -3.517   0.644  -3.175  0.00  0.00    +0.000 Br
ENDBRANCH   7   9
TORSDOF 1
