REMARK  Name = 
REMARK  1 active torsions:
REMARK  status: ('A' for Active; 'I' for Inactive)
REMARK    1  A    between atoms: C_7  and  C_8
REMARK                            x       y       z     vdW  Elec       q    Type
REMARK                         _______ _______ _______ _____ _____    ______ ____
ROOT
ATOM      1  F   UNL     1       1.865  -0.793   1.203  0.00  0.00    +0.000 F 
ATOM      2  C   UNL     1       1.736  -0.361  -0.129  0.00  0.00    +0.000 C 
ATOM      3  C   UNL     1       2.729   0.715  -0.286  0.00  0.00    +0.000 C 
ATOM      4  C   UNL     1       1.351   1.184  -0.450  0.00  0.00    +0.000 C 
ATOM      5 CL   UNL     1       1.093   1.683  -2.194  0.00  0.00    +0.000 Cl
ATOM      6  C   UNL     1       0.074   1.250   0.318  0.00  0.00    +0.000 C 
ATOM      7  C   UNL     1      -0.503  -0.174   0.112  0.00  0.00    +0.000 C 
ATOM      8  O   UNL     1       0.500  -0.872  -0.672  0.00  0.00    +0.000 OA
ENDROOT
BRANCH   7   9
ATOM      9  C   UNL     1      -1.887  -0.226  -0.460  0.00  0.00    +0.000 C 
ATOM     10  C   UNL     1      -2.250  -0.873  -1.572  0.00  0.00    +0.000 C 
ATOM     11 BR   UNL     1      -4.005  -0.988  -2.158  0.00  0.00    +0.000 Br
ENDBRANCH   7   9
TORSDOF 1
