@<TRIPOS>MOLECULE
*****
 18 19 0 0 0
SMALL
GASTEIGER

@<TRIPOS>ATOM
      1 F          -0.0376    4.0219   -0.7564 F       1  UNL1       -0.2090
      2 C           0.5926    3.2146    0.1993 C.3     1  UNL1        0.2321
      3 C           2.0299    3.4101    0.1104 C.3     1  UNL1        0.0324
      4 C           1.5702    2.0561   -0.3332 C.3     1  UNL1        0.1113
      5 CL          2.3195    0.8459    0.8459 Cl      1  UNL1       -0.1120
      6 C           0.5165    1.3591   -1.1452 C.3     1  UNL1        0.0018
      7 C          -0.7483    1.4523   -0.2367 C.3     1  UNL1        0.0829
      8 C          -1.2544    0.1517    0.3024 C.2     1  UNL1       -0.0487
      9 C          -2.2096   -0.5975   -0.2686 C.2     1  UNL1       -0.0201
     10 BR         -3.0978   -0.2361   -1.8561 Br      1  UNL1       -0.0590
     11 O          -0.3490    2.3474    0.8492 O.3     1  UNL1       -0.3358
     12 H           2.5819    3.5384    1.0318 H       1  UNL1        0.0339
     13 H           2.3810    4.0813   -0.6685 H       1  UNL1        0.0339
     14 H           0.3484    1.8782   -2.0938 H       1  UNL1        0.0312
     15 H           0.7794    0.3242   -1.3881 H       1  UNL1        0.0312
     16 H          -1.5469    1.9734   -0.7768 H       1  UNL1        0.0642
     17 H          -0.8001   -0.2018    1.2219 H       1  UNL1        0.0603
     18 H          -2.5345   -1.5348    0.1801 H       1  UNL1        0.0693
@<TRIPOS>BOND
     1     1     2    1
     2     2     3    1
     3     3     4    1
     4     2     4    1
     5     4     5    1
     6     4     6    1
     7     6     7    1
     8     7     8    1
     9     8     9    2
    10     9    10    1
    11     7    11    1
    12     2    11    1
    13     3    12    1
    14     3    13    1
    15     6    14    1
    16     6    15    1
    17     7    16    1
    18     8    17    1
    19     9    18    1
