REMARK  Name = 
REMARK  1 active torsions:
REMARK  status: ('A' for Active; 'I' for Inactive)
REMARK    1  A    between atoms: C_7  and  C_8
REMARK                            x       y       z     vdW  Elec       q    Type
REMARK                         _______ _______ _______ _____ _____    ______ ____
ROOT
ATOM      1  F   UNL     1      -0.361   4.836   0.441  0.00  0.00    +0.000 F 
ATOM      2  C   UNL     1       0.526   3.813   0.813  0.00  0.00    +0.000 C 
ATOM      3  C   UNL     1       1.883   4.294   0.608  0.00  0.00    +0.000 C 
ATOM      4  C   UNL     1       1.489   3.197  -0.318  0.00  0.00    +0.000 C 
ATOM      5 CL   UNL     1       2.563   1.748   0.078  0.00  0.00    +0.000 Cl
ATOM      6  C   UNL     1       0.384   2.762  -1.233  0.00  0.00    +0.000 C 
ATOM      7  C   UNL     1      -0.704   2.252  -0.244  0.00  0.00    +0.000 C 
ATOM      8  O   UNL     1      -0.188   2.595   1.077  0.00  0.00    +0.000 OA
ENDROOT
BRANCH   7   9
ATOM      9  C   UNL     1      -1.011   0.785  -0.335  0.00  0.00    +0.000 C 
ATOM     10  C   UNL     1      -2.000   0.249  -1.068  0.00  0.00    +0.000 C 
ATOM     11 BR   UNL     1      -3.167   1.165  -2.180  0.00  0.00    +0.000 Br
ENDBRANCH   7   9
TORSDOF 1
