REMARK  Name = 
REMARK  1 active torsions:
REMARK  status: ('A' for Active; 'I' for Inactive)
REMARK    1  A    between atoms: C_7  and  C_8
REMARK                            x       y       z     vdW  Elec       q    Type
REMARK                         _______ _______ _______ _____ _____    ______ ____
ROOT
ATOM      1  F   UNL     1      -0.484   6.261   2.397  0.00  0.00    +0.000 F 
ATOM      2  C   UNL     1       0.419   6.752   1.440  0.00  0.00    +0.000 C 
ATOM      3  C   UNL     1       0.360   8.213   1.499  0.00  0.00    +0.000 C 
ATOM      4  C   UNL     1      -0.147   7.650   0.228  0.00  0.00    +0.000 C 
ATOM      5 CL   UNL     1       0.996   8.183  -1.114  0.00  0.00    +0.000 Cl
ATOM      6  C   UNL     1      -1.114   6.635  -0.294  0.00  0.00    +0.000 C 
ATOM      7  C   UNL     1      -0.339   5.301  -0.117  0.00  0.00    +0.000 C 
ATOM      8  O   UNL     1       0.880   5.680   0.595  0.00  0.00    +0.000 OA
ENDROOT
BRANCH   7   9
ATOM      9  C   UNL     1      -0.018   4.572  -1.389  0.00  0.00    +0.000 C 
ATOM     10  C   UNL     1      -0.778   3.620  -1.944  0.00  0.00    +0.000 C 
ATOM     11 BR   UNL     1      -2.420   3.017  -1.320  0.00  0.00    +0.000 Br
ENDBRANCH   7   9
TORSDOF 1
