@<TRIPOS>MOLECULE
*****
 18 19 0 0 0
SMALL
GASTEIGER

@<TRIPOS>ATOM
      1 F           0.3197    0.7505    1.7701 F       1  UNL1       -0.2090
      2 C           1.1181    1.0811    0.6729 C.3     1  UNL1        0.2321
      3 C           2.1181    2.0513    1.0169 C.3     1  UNL1        0.0324
      4 C           0.9909    2.5576    0.1083 C.3     1  UNL1        0.1113
      5 CL          1.9062    3.1368   -1.4153 Cl      1  UNL1       -0.1120
      6 C          -0.4351    2.3241   -0.3152 C.3     1  UNL1        0.0018
      7 C          -0.3598    0.9516   -1.0466 C.3     1  UNL1        0.0829
      8 C          -1.6045    0.1400   -0.8171 C.2     1  UNL1       -0.0487
      9 C          -1.6536   -1.0571   -0.2189 C.2     1  UNL1       -0.0201
     10 BR         -3.2250   -1.9830    0.1139 Br      1  UNL1       -0.0590
     11 O           0.8178    0.3059   -0.4905 O.3     1  UNL1       -0.3358
     12 H           2.1146    2.4218    2.0377 H       1  UNL1        0.0339
     13 H           3.1177    1.8967    0.6334 H       1  UNL1        0.0339
     14 H          -0.8282    3.1046   -0.9774 H       1  UNL1        0.0312
     15 H          -1.0957    2.2985    0.5618 H       1  UNL1        0.0312
     16 H          -0.1912    1.0839   -2.1213 H       1  UNL1        0.0642
     17 H          -2.5317    0.6003   -1.1507 H       1  UNL1        0.0603
     18 H          -0.7703   -1.5726    0.1418 H       1  UNL1        0.0693
@<TRIPOS>BOND
     1     2     3    1
     2     3     4    1
     3     2     4    1
     4     4     6    1
     5     6     7    1
     6     8     9    2
     7     9    10    1
     8     7    11    1
     9     2    11    1
    10     1     2    1
    11     4     5    1
    12     7     8    1
    13     3    12    1
    14     3    13    1
    15     6    14    1
    16     6    15    1
    17     7    16    1
    18     8    17    1
    19     9    18    1
