REMARK  Name = 
REMARK  1 active torsions:
REMARK  status: ('A' for Active; 'I' for Inactive)
REMARK    1  A    between atoms: C_7  and  C_8
REMARK                            x       y       z     vdW  Elec       q    Type
REMARK                         _______ _______ _______ _____ _____    ______ ____
ROOT
ATOM      1  F   UNL     1       0.367   0.448   1.788  0.00  0.00    +0.000 F 
ATOM      2  C   UNL     1       1.146   0.425   0.630  0.00  0.00    +0.000 C 
ATOM      3  C   UNL     1       2.247   1.346   0.733  0.00  0.00    +0.000 C 
ATOM      4  C   UNL     1       1.165   1.741  -0.263  0.00  0.00    +0.000 C 
ATOM      5 CL   UNL     1       2.058   1.818  -1.896  0.00  0.00    +0.000 Cl
ATOM      6  C   UNL     1      -0.301   1.632  -0.565  0.00  0.00    +0.000 C 
ATOM      7  C   UNL     1      -0.454   0.134  -0.964  0.00  0.00    +0.000 C 
ATOM      8  O   UNL     1       0.675  -0.531  -0.324  0.00  0.00    +0.000 OA
ENDROOT
BRANCH   7   9
ATOM      9  C   UNL     1      -1.773  -0.420  -0.501  0.00  0.00    +0.000 C 
ATOM     10  C   UNL     1      -1.942  -1.427   0.365  0.00  0.00    +0.000 C 
ATOM     11 BR   UNL     1      -3.595  -1.998   0.974  0.00  0.00    +0.000 Br
ENDBRANCH   7   9
TORSDOF 1
