REMARK  Name = 
REMARK  1 active torsions:
REMARK  status: ('A' for Active; 'I' for Inactive)
REMARK    1  A    between atoms: C_7  and  C_8
REMARK                            x       y       z     vdW  Elec       q    Type
REMARK                         _______ _______ _______ _____ _____    ______ ____
ROOT
ATOM      1  F   UNL     1       0.466  -2.282  -0.560  0.00  0.00    +0.000 F 
ATOM      2  C   UNL     1      -0.439  -1.812   0.399  0.00  0.00    +0.000 C 
ATOM      3  C   UNL     1      -1.745  -2.385   0.153  0.00  0.00    +0.000 C 
ATOM      4  C   UNL     1      -1.661  -0.904  -0.102  0.00  0.00    +0.000 C 
ATOM      5 CL   UNL     1      -2.858  -0.137   1.087  0.00  0.00    +0.000 Cl
ATOM      6  C   UNL     1      -0.765   0.173  -0.613  0.00  0.00    +0.000 C 
ATOM      7  C   UNL     1       0.213   0.377   0.579  0.00  0.00    +0.000 C 
ATOM      8  O   UNL     1       0.185  -0.886   1.305  0.00  0.00    +0.000 OA
ENDROOT
BRANCH   7   9
ATOM      9  C   UNL     1       1.574   0.726   0.042  0.00  0.00    +0.000 C 
ATOM     10  C   UNL     1       2.701   0.046   0.228  0.00  0.00    +0.000 C 
ATOM     11 BR   UNL     1       4.292   0.440  -0.643  0.00  0.00    +0.000 Br
ENDBRANCH   7   9
TORSDOF 1
