@<TRIPOS>MOLECULE
*****
 18 19 0 0 0
SMALL
GASTEIGER

@<TRIPOS>ATOM
      1 F           0.2486    5.8675    0.1406 F       1  UNL1       -0.2090
      2 C           0.9250    4.7155    0.5485 C.3     1  UNL1        0.2321
      3 C           2.3430    4.8738    0.5562 C.3     1  UNL1        0.0324
      4 C           1.7560    3.9678   -0.5645 C.3     1  UNL1        0.1113
      5 CL          2.7066    2.3734   -0.2744 Cl      1  UNL1       -0.1120
      6 C           0.4851    3.5479   -1.2701 C.3     1  UNL1        0.0018
      7 C          -0.3947    2.9867   -0.1220 C.3     1  UNL1        0.0829
      8 C          -1.8552    3.2704   -0.3126 C.2     1  UNL1       -0.0487
      9 C          -2.7443    2.4909   -0.9419 C.2     1  UNL1       -0.0201
     10 BR         -2.3953    0.8722   -1.7730 Br      1  UNL1       -0.0590
     11 O           0.0610    3.6980    1.0620 O.3     1  UNL1       -0.3358
     12 H           2.7424    5.8307    0.2380 H       1  UNL1        0.0339
     13 H           2.8812    4.4512    1.3961 H       1  UNL1        0.0339
     14 H           0.6491    2.7955   -2.0513 H       1  UNL1        0.0312
     15 H           0.0222    4.4117   -1.7696 H       1  UNL1        0.0312
     16 H          -0.2019    1.9251    0.0556 H       1  UNL1        0.0642
     17 H          -2.2128    4.2098    0.1043 H       1  UNL1        0.0603
     18 H          -3.7842    2.7875   -1.0274 H       1  UNL1        0.0693
@<TRIPOS>BOND
     1     1     2    1
     2     2     3    1
     3     3     4    1
     4     2     4    1
     5     4     5    1
     6     4     6    1
     7     6     7    1
     8     7     8    1
     9     8     9    2
    10     9    10    1
    11     7    11    1
    12     2    11    1
    13     3    12    1
    14     3    13    1
    15     6    14    1
    16     6    15    1
    17     7    16    1
    18     8    17    1
    19     9    18    1
