REMARK  Name = 
REMARK  1 active torsions:
REMARK  status: ('A' for Active; 'I' for Inactive)
REMARK    1  A    between atoms: C_7  and  C_8
REMARK                            x       y       z     vdW  Elec       q    Type
REMARK                         _______ _______ _______ _____ _____    ______ ____
ROOT
ATOM      1  F   UNL     1       0.945  -2.161   1.250  0.00  0.00    +0.000 F 
ATOM      2  C   UNL     1       1.363  -1.350   0.191  0.00  0.00    +0.000 C 
ATOM      3  C   UNL     1       2.689  -0.849   0.376  0.00  0.00    +0.000 C 
ATOM      4  C   UNL     1       1.545   0.185   0.511  0.00  0.00    +0.000 C 
ATOM      5 CL   UNL     1       2.014   1.458  -0.779  0.00  0.00    +0.000 Cl
ATOM      6  C   UNL     1       0.061   0.357   0.739  0.00  0.00    +0.000 C 
ATOM      7  C   UNL     1      -0.579  -0.383  -0.473  0.00  0.00    +0.000 C 
ATOM      8  O   UNL     1       0.441  -1.327  -0.900  0.00  0.00    +0.000 OA
ENDROOT
BRANCH   7   9
ATOM      9  C   UNL     1      -1.795  -1.173  -0.081  0.00  0.00    +0.000 C 
ATOM     10  C   UNL     1      -3.059  -1.004  -0.487  0.00  0.00    +0.000 C 
ATOM     11 BR   UNL     1      -3.689   0.284  -1.654  0.00  0.00    +0.000 Br
ENDBRANCH   7   9
TORSDOF 1
