REMARK  Name = 
REMARK  1 active torsions:
REMARK  status: ('A' for Active; 'I' for Inactive)
REMARK    1  A    between atoms: C_7  and  C_8
REMARK                            x       y       z     vdW  Elec       q    Type
REMARK                         _______ _______ _______ _____ _____    ______ ____
ROOT
ATOM      1  F   UNL     1       0.871   0.979   1.937  0.00  0.00    +0.000 F 
ATOM      2  C   UNL     1       1.346   0.435   0.740  0.00  0.00    +0.000 C 
ATOM      3  C   UNL     1       2.628   0.944   0.370  0.00  0.00    +0.000 C 
ATOM      4  C   UNL     1       1.421   1.419  -0.491  0.00  0.00    +0.000 C 
ATOM      5 CL   UNL     1       1.963   0.901  -2.209  0.00  0.00    +0.000 Cl
ATOM      6  C   UNL     1      -0.088   1.510  -0.555  0.00  0.00    +0.000 C 
ATOM      7  C   UNL     1      -0.550   0.028  -0.439  0.00  0.00    +0.000 C 
ATOM      8  O   UNL     1       0.545  -0.638   0.245  0.00  0.00    +0.000 OA
ENDROOT
BRANCH   7   9
ATOM      9  C   UNL     1      -1.774  -0.123   0.415  0.00  0.00    +0.000 C 
ATOM     10  C   UNL     1      -2.979  -0.580   0.055  0.00  0.00    +0.000 C 
ATOM     11 BR   UNL     1      -3.502  -1.148  -1.625  0.00  0.00    +0.000 Br
ENDBRANCH   7   9
TORSDOF 1
