@<TRIPOS>MOLECULE
*****
 18 19 0 0 0
SMALL
GASTEIGER

@<TRIPOS>ATOM
      1 F           0.2265   -3.6681   -1.4361 F       1  UNL1       -0.2090
      2 C           0.6301   -3.4024   -0.1185 C.3     1  UNL1        0.2321
      3 C           2.0895   -3.4968   -0.0919 C.3     1  UNL1        0.0324
      4 C           1.5843   -2.1293    0.1654 C.3     1  UNL1        0.1113
      5 CL          2.0176   -1.6917    1.9000 Cl      1  UNL1       -0.1120
      6 C           0.6719   -1.0926   -0.4122 C.3     1  UNL1        0.0018
      7 C          -0.7364   -1.6094   -0.0064 C.3     1  UNL1        0.0829
      8 C          -1.5697   -0.6669    0.8055 C.2     1  UNL1       -0.0487
      9 C          -2.0876   -0.9106    2.0132 C.2     1  UNL1       -0.0201
     10 BR         -3.2195    0.2607    2.8990 Br      1  UNL1       -0.0590
     11 O          -0.4791   -2.8903    0.6428 O.3     1  UNL1       -0.3358
     12 H           2.5514   -4.0751    0.6973 H       1  UNL1        0.0339
     13 H           2.5841   -3.6584   -1.0472 H       1  UNL1        0.0339
     14 H           0.7723   -1.0423   -1.5017 H       1  UNL1        0.0312
     15 H           0.8730   -0.0891   -0.0188 H       1  UNL1        0.0312
     16 H          -1.3064   -1.8290   -0.9199 H       1  UNL1        0.0642
     17 H          -1.8098    0.2738    0.3084 H       1  UNL1        0.0603
     18 H          -1.9049   -1.8386    2.5557 H       1  UNL1        0.0693
@<TRIPOS>BOND
     1     1     2    1
     2     2     3    1
     3     3     4    1
     4     2     4    1
     5     4     5    1
     6     4     6    1
     7     6     7    1
     8     8     9    2
     9     9    10    1
    10     7    11    1
    11     2    11    1
    12     7     8    1
    13     3    12    1
    14     3    13    1
    15     6    14    1
    16     6    15    1
    17     7    16    1
    18     8    17    1
    19     9    18    1
