REMARK  Name = 
REMARK  1 active torsions:
REMARK  status: ('A' for Active; 'I' for Inactive)
REMARK    1  A    between atoms: C_7  and  C_8
REMARK                            x       y       z     vdW  Elec       q    Type
REMARK                         _______ _______ _______ _____ _____    ______ ____
ROOT
ATOM      1  F   UNL     1       1.143  -1.365  -1.395  0.00  0.00    +0.000 F 
ATOM      2  C   UNL     1       1.463  -0.701  -0.202  0.00  0.00    +0.000 C 
ATOM      3  C   UNL     1       2.731  -0.017  -0.363  0.00  0.00    +0.000 C 
ATOM      4  C   UNL     1       1.546   0.898  -0.244  0.00  0.00    +0.000 C 
ATOM      5 CL   UNL     1       1.810   1.869   1.308  0.00  0.00    +0.000 Cl
ATOM      6  C   UNL     1       0.124   1.086  -0.693  0.00  0.00    +0.000 C 
ATOM      7  C   UNL     1      -0.649  -0.005   0.107  0.00  0.00    +0.000 C 
ATOM      8  O   UNL     1       0.391  -0.794   0.748  0.00  0.00    +0.000 OA
ENDROOT
BRANCH   7   9
ATOM      9  C   UNL     1      -1.693   0.502   1.054  0.00  0.00    +0.000 C 
ATOM     10  C   UNL     1      -1.761   0.270   2.363  0.00  0.00    +0.000 C 
ATOM     11 BR   UNL     1      -3.161   0.848   3.436  0.00  0.00    +0.000 Br
ENDBRANCH   7   9
TORSDOF 1
