REMARK  Name = 
REMARK  9 active torsions:
REMARK  status: ('A' for Active; 'I' for Inactive)
REMARK    1  A    between atoms: C_2  and  C_3
REMARK    2  A    between atoms: C_3  and  O_4
REMARK    3  A    between atoms: O_4  and  C_5
REMARK    4  A    between atoms: N_12  and  C_13
REMARK    5  A    between atoms: C_16  and  N_17
REMARK    6  A    between atoms: N_17  and  C_18
REMARK    7  A    between atoms: C_18  and  O_19
REMARK    8  A    between atoms: C_20  and  O_21
REMARK    9  A    between atoms: O_21  and  C_22
REMARK                            x       y       z     vdW  Elec       q    Type
REMARK                         _______ _______ _______ _____ _____    ______ ____
ROOT
ATOM      1  C   UNL     1       4.469   0.755   0.730  0.00  0.00    +0.000 C 
ATOM      2  C   UNL     1       5.240   0.075  -0.410  0.00  0.00    +0.000 C 
ATOM      3  C   UNL     1       4.917   0.705  -1.764  0.00  0.00    +0.000 C 
ATOM      4  C   UNL     1       5.242   2.203  -1.794  0.00  0.00    +0.000 C 
ATOM      5  C   UNL     1       4.656   2.945  -0.585  0.00  0.00    +0.000 C 
ATOM      6  C   UNL     1       4.901   2.238   0.759  0.00  0.00    +0.000 C 
ENDROOT
BRANCH   1   9
ATOM      7  O   UNL     1       0.914  -0.034   0.653  0.00  0.00    +0.000 OA
ATOM      8  C   UNL     1       2.111  -0.336   0.645  0.00  0.00    +0.000 C 
ATOM      9  N   UNL     1       3.007   0.690   0.603  0.00  0.00    +0.000 N 
ATOM     10  H   UNL     1       2.508   1.570   0.687  0.00  0.00    +0.000 HD
BRANCH   8  11
ATOM     11  C   UNL     1       2.547  -1.795   0.598  0.00  0.00    +0.000 C 
BRANCH  11  12
ATOM     12  O   UNL     1       2.710  -2.419   1.862  0.00  0.00    +0.000 OA
BRANCH  12  13
ATOM     13  C   UNL     1       3.143  -3.724   1.817  0.00  0.00    +0.000 A 
ATOM     14  C   UNL     1       3.443  -4.436   0.650  0.00  0.00    +0.000 A 
ATOM     15  C   UNL     1       3.945  -5.740   0.719  0.00  0.00    +0.000 A 
ATOM     16  C   UNL     1       4.133  -6.344   1.957  0.00  0.00    +0.000 A 
ATOM     17 CL   UNL     1       4.791  -7.930   2.039  0.00  0.00    +0.000 Cl
ATOM     18  C   UNL     1       3.801  -5.661   3.126  0.00  0.00    +0.000 A 
ATOM     19  C   UNL     1       3.305  -4.354   3.054  0.00  0.00    +0.000 A 
ENDBRANCH  12  13
ENDBRANCH  11  12
ENDBRANCH   8  11
ENDBRANCH   1   9
BRANCH   4  20
ATOM     20  N   UNL     1       6.689   2.365  -1.824  0.00  0.00    +0.000 N 
ATOM     21  H   UNL     1       7.185   1.976  -1.026  0.00  0.00    +0.000 HD
BRANCH  20  22
ATOM     22  C   UNL     1       7.515   2.948  -2.741  0.00  0.00    +0.000 C 
ATOM     23  C   UNL     1       8.850   2.973  -2.618  0.00  0.00    +0.000 C 
BRANCH  22  24
ATOM     24  O   UNL     1       6.967   3.504  -3.867  0.00  0.00    +0.000 OA
ATOM     25  H   UNL     1       6.081   3.129  -3.963  0.00  0.00    +0.000 HD
ENDBRANCH  22  24
BRANCH  23  26
ATOM     26  O   UNL     1       9.672   3.527  -3.567  0.00  0.00    +0.000 OA
BRANCH  26  27
ATOM     27  C   UNL     1      10.934   3.012  -3.735  0.00  0.00    +0.000 A 
ATOM     28  C   UNL     1      11.270   1.673  -3.516  0.00  0.00    +0.000 A 
ATOM     29  C   UNL     1      12.570   1.231  -3.770  0.00  0.00    +0.000 A 
ATOM     30  C   UNL     1      13.522   2.124  -4.260  0.00  0.00    +0.000 A 
ATOM     31 CL   UNL     1      15.120   1.572  -4.586  0.00  0.00    +0.000 Cl
ATOM     32  C   UNL     1      13.188   3.455  -4.499  0.00  0.00    +0.000 A 
ATOM     33  C   UNL     1      11.890   3.897  -4.240  0.00  0.00    +0.000 A 
ENDBRANCH  26  27
ENDBRANCH  23  26
ENDBRANCH  20  22
ENDBRANCH   4  20
TORSDOF 9
