REMARK  Name = 
REMARK  1 active torsions:
REMARK  status: ('A' for Active; 'I' for Inactive)
REMARK    1  A    between atoms: C_7  and  C_8
REMARK                            x       y       z     vdW  Elec       q    Type
REMARK                         _______ _______ _______ _____ _____    ______ ____
ROOT
ATOM      1  F   UNL     1       1.058  -2.769  -0.337  0.00  0.00    +0.000 F 
ATOM      2  C   UNL     1       1.231  -1.737   0.598  0.00  0.00    +0.000 C 
ATOM      3  C   UNL     1       2.607  -1.295   0.576  0.00  0.00    +0.000 C 
ATOM      4  C   UNL     1       1.626  -0.292   0.033  0.00  0.00    +0.000 C 
ATOM      5 CL   UNL     1       1.730   1.169   1.161  0.00  0.00    +0.000 Cl
ATOM      6  C   UNL     1       0.396  -0.151  -0.821  0.00  0.00    +0.000 C 
ATOM      7  C   UNL     1      -0.726  -0.772   0.063  0.00  0.00    +0.000 C 
ATOM      8  O   UNL     1      -0.021  -1.360   1.192  0.00  0.00    +0.000 OA
ENDROOT
BRANCH   7   9
ATOM      9  C   UNL     1      -1.828   0.161   0.456  0.00  0.00    +0.000 C 
ATOM     10  C   UNL     1      -2.217   0.448   1.701  0.00  0.00    +0.000 C 
ATOM     11 BR   UNL     1      -3.686   1.514   2.093  0.00  0.00    +0.000 Br
ENDBRANCH   7   9
TORSDOF 1
