@<TRIPOS>MOLECULE
*****
 18 19 0 0 0
SMALL
GASTEIGER

@<TRIPOS>ATOM
      1 F           0.9143   -3.6681   -1.3839 F       1  UNL1       -0.2090
      2 C           0.7661   -3.4502   -0.0056 C.3     1  UNL1        0.2321
      3 C           2.0707   -3.5879    0.6170 C.3     1  UNL1        0.0324
      4 C           1.5315   -2.1957    0.6479 C.3     1  UNL1        0.1113
      5 CL          1.2724   -1.7757    2.4289 Cl      1  UNL1       -0.1120
      6 C           0.8612   -1.1537   -0.2028 C.3     1  UNL1        0.0018
      7 C          -0.5872   -1.6960   -0.3635 C.3     1  UNL1        0.0829
      8 C          -1.6825   -0.8318    0.1728 C.2     1  UNL1       -0.0487
      9 C          -2.3733    0.0608   -0.5540 C.2     1  UNL1       -0.0201
     10 BR         -2.1123    0.4827   -2.3412 Br      1  UNL1       -0.0590
     11 O          -0.5614   -2.9943    0.3017 O.3     1  UNL1       -0.3358
     12 H           2.1423   -4.1799    1.5208 H       1  UNL1        0.0339
     13 H           2.9095   -3.7722   -0.0505 H       1  UNL1        0.0339
     14 H           0.8808   -0.1574    0.2566 H       1  UNL1        0.0312
     15 H           1.3532   -1.0666   -1.1769 H       1  UNL1        0.0312
     16 H          -0.7727   -1.9120   -1.4217 H       1  UNL1        0.0642
     17 H          -1.9371   -0.9550    1.2217 H       1  UNL1        0.0603
     18 H          -3.1758    0.6430   -0.1116 H       1  UNL1        0.0693
@<TRIPOS>BOND
     1     1     2    1
     2     2     3    1
     3     3     4    1
     4     2     4    1
     5     4     5    1
     6     4     6    1
     7     6     7    1
     8     8     9    2
     9     9    10    1
    10     7    11    1
    11     2    11    1
    12     7     8    1
    13     3    12    1
    14     3    13    1
    15     6    14    1
    16     6    15    1
    17     7    16    1
    18     8    17    1
    19     9    18    1
