REMARK  Name = 
REMARK  1 active torsions:
REMARK  status: ('A' for Active; 'I' for Inactive)
REMARK    1  A    between atoms: C_7  and  C_8
REMARK                            x       y       z     vdW  Elec       q    Type
REMARK                         _______ _______ _______ _____ _____    ______ ____
ROOT
ATOM      1  F   UNL     1       1.490  -2.123  -1.728  0.00  0.00    +0.000 F 
ATOM      2  C   UNL     1       1.072  -2.542  -0.458  0.00  0.00    +0.000 C 
ATOM      3  C   UNL     1       2.229  -2.823   0.363  0.00  0.00    +0.000 C 
ATOM      4  C   UNL     1       1.447  -1.606   0.786  0.00  0.00    +0.000 C 
ATOM      5 CL   UNL     1       0.828  -1.987   2.491  0.00  0.00    +0.000 Cl
ATOM      6  C   UNL     1       0.690  -0.413   0.268  0.00  0.00    +0.000 C 
ATOM      7  C   UNL     1      -0.582  -1.037  -0.376  0.00  0.00    +0.000 C 
ATOM      8  O   UNL     1      -0.353  -2.475  -0.320  0.00  0.00    +0.000 OA
ENDROOT
BRANCH   7   9
ATOM      9  C   UNL     1      -1.889  -0.675   0.260  0.00  0.00    +0.000 C 
ATOM     10  C   UNL     1      -2.685   0.323  -0.148  0.00  0.00    +0.000 C 
ATOM     11 BR   UNL     1      -2.345   1.524  -1.522  0.00  0.00    +0.000 Br
ENDBRANCH   7   9
TORSDOF 1
