REMARK  Name = 
REMARK  1 active torsions:
REMARK  status: ('A' for Active; 'I' for Inactive)
REMARK    1  A    between atoms: C_7  and  C_8
REMARK                            x       y       z     vdW  Elec       q    Type
REMARK                         _______ _______ _______ _____ _____    ______ ____
ROOT
ATOM      1  F   UNL     1      -0.558  -2.880  -2.162  0.00  0.00    +0.000 F 
ATOM      2  C   UNL     1      -0.969  -3.020  -0.824  0.00  0.00    +0.000 C 
ATOM      3  C   UNL     1      -0.934  -4.418  -0.455  0.00  0.00    +0.000 C 
ATOM      4  C   UNL     1       0.111  -3.566   0.220  0.00  0.00    +0.000 C 
ATOM      5 CL   UNL     1      -0.277  -3.663   2.030  0.00  0.00    +0.000 Cl
ATOM      6  C   UNL     1       1.069  -2.423   0.008  0.00  0.00    +0.000 C 
ATOM      7  C   UNL     1       0.137  -1.188  -0.172  0.00  0.00    +0.000 C 
ATOM      8  O   UNL     1      -1.207  -1.752  -0.209  0.00  0.00    +0.000 OA
ENDROOT
BRANCH   7   9
ATOM      9  C   UNL     1       0.247  -0.122   0.872  0.00  0.00    +0.000 C 
ATOM     10  C   UNL     1       1.011   0.977   0.773  0.00  0.00    +0.000 C 
ATOM     11 BR   UNL     1       2.155   1.403  -0.627  0.00  0.00    +0.000 Br
ENDBRANCH   7   9
TORSDOF 1
