REMARK  Name = 
REMARK  10 active torsions:
REMARK  status: ('A' for Active; 'I' for Inactive)
REMARK    1  A    between atoms: O_1  and  C_2
REMARK    2  A    between atoms: C_2  and  N_12
REMARK    3  A    between atoms: C_3  and  O_4
REMARK    4  A    between atoms: O_4  and  C_5
REMARK    5  A    between atoms: N_12  and  C_13
REMARK    6  A    between atoms: C_16  and  N_17
REMARK    7  A    between atoms: C_18  and  O_19
REMARK    8  A    between atoms: C_18  and  C_20
REMARK    9  A    between atoms: C_20  and  O_21
REMARK   10  A    between atoms: O_21  and  C_22
REMARK                            x       y       z     vdW  Elec       q    Type
REMARK                         _______ _______ _______ _____ _____    ______ ____
ROOT
ATOM      1  C   UNL     1       4.362  -0.451  -1.217  0.00  0.00    +0.000 C 
ATOM      2  C   UNL     1       4.753  -1.784  -1.931  0.00  0.00    +0.000 C 
ATOM      3  C   UNL     1       4.676  -1.751  -3.445  0.00  0.00    +0.000 C 
ATOM      4  C   UNL     1       5.272  -0.490  -4.046  0.00  0.00    +0.000 C 
ATOM      5  C   UNL     1       4.615   0.763  -3.482  0.00  0.00    +0.000 C 
ATOM      6  C   UNL     1       4.685   0.872  -1.968  0.00  0.00    +0.000 C 
ENDROOT
BRANCH   1   7
ATOM      7  N   UNL     1       2.949  -0.447  -0.930  0.00  0.00    +0.000 N 
ATOM      8  H   UNL     1       2.387   0.306  -1.319  0.00  0.00    +0.000 HD
BRANCH   7   9
ATOM      9  C   UNL     1       2.289  -1.352  -0.152  0.00  0.00    +0.000 C 
ATOM     10  C   UNL     1       0.965  -1.352  -0.048  0.00  0.00    +0.000 C 
BRANCH   9  11
ATOM     11  O   UNL     1       3.053  -2.308   0.467  0.00  0.00    +0.000 OA
ATOM     12  H   UNL     1       2.428  -2.932   0.881  0.00  0.00    +0.000 HD
ENDBRANCH   9  11
BRANCH  10  13
ATOM     13  O   UNL     1       0.283  -2.352   0.583  0.00  0.00    +0.000 OA
BRANCH  13  14
ATOM     14  C   UNL     1      -0.985  -2.596   0.117  0.00  0.00    +0.000 A 
ATOM     15  C   UNL     1      -1.332  -2.508  -1.238  0.00  0.00    +0.000 A 
ATOM     16  C   UNL     1      -2.652  -2.732  -1.624  0.00  0.00    +0.000 A 
ATOM     17  C   UNL     1      -3.600  -3.072  -0.659  0.00  0.00    +0.000 A 
ATOM     18 CL   UNL     1      -5.234  -3.337  -1.127  0.00  0.00    +0.000 Cl
ATOM     19  C   UNL     1      -3.243  -3.202   0.683  0.00  0.00    +0.000 A 
ATOM     20  C   UNL     1      -1.925  -2.967   1.074  0.00  0.00    +0.000 A 
ENDBRANCH  13  14
ENDBRANCH  10  13
ENDBRANCH   7   9
ENDBRANCH   1   7
BRANCH   4  21
ATOM     21  N   UNL     1       6.725  -0.482  -4.052  0.00  0.00    +0.000 NA
ATOM     22  C   UNL     1       7.615  -0.488  -3.138  0.00  0.00    +0.000 C 
BRANCH  22  23
ATOM     23  O   UNL     1       7.442  -0.450  -1.804  0.00  0.00    +0.000 OA
ATOM     24  H   UNL     1       6.530  -0.356  -1.560  0.00  0.00    +0.000 HD
ENDBRANCH  22  23
BRANCH  22  25
ATOM     25  C   UNL     1       9.079  -0.524  -3.386  0.00  0.00    +0.000 C 
BRANCH  25  26
ATOM     26  O   UNL     1       9.495   0.832  -3.284  0.00  0.00    +0.000 OA
BRANCH  26  27
ATOM     27  C   UNL     1      10.843   1.014  -3.198  0.00  0.00    +0.000 A 
ATOM     28  C   UNL     1      11.781  -0.014  -3.106  0.00  0.00    +0.000 A 
ATOM     29  C   UNL     1      13.141   0.282  -3.086  0.00  0.00    +0.000 A 
ATOM     30  C   UNL     1      13.557   1.608  -3.149  0.00  0.00    +0.000 A 
ATOM     31 CL   UNL     1      15.237   1.960  -3.181  0.00  0.00    +0.000 Cl
ATOM     32  C   UNL     1      12.623   2.643  -3.201  0.00  0.00    +0.000 A 
ATOM     33  C   UNL     1      11.262   2.344  -3.217  0.00  0.00    +0.000 A 
ENDBRANCH  26  27
ENDBRANCH  25  26
ENDBRANCH  22  25
ENDBRANCH   4  21
TORSDOF 10
