@<TRIPOS>MOLECULE
*****
 18 19 0 0 0
SMALL
GASTEIGER

@<TRIPOS>ATOM
      1 F           1.8542    0.8125    1.0948 F       1  UNL1       -0.2090
      2 C           2.8591    0.2655    0.3173 C.3     1  UNL1        0.2321
      3 C           3.6143    1.1684   -0.5891 C.3     1  UNL1        0.0324
      4 C           4.2813    0.6171    0.6475 C.3     1  UNL1        0.1113
      5 CL          4.6327    1.7038    1.9740 Cl      1  UNL1       -0.1120
      6 C           5.0500   -0.6707    0.5779 C.3     1  UNL1        0.0018
      7 C           3.9544   -1.7444    0.6868 C.3     1  UNL1        0.0829
      8 C           3.5835   -2.0715    2.1107 C.2     1  UNL1       -0.0487
      9 C           3.7222   -3.2712    2.6796 C.2     1  UNL1       -0.0201
     10 BR          3.2257   -3.6364    4.4320 Br      1  UNL1       -0.0590
     11 O           2.7975   -1.1556    0.0579 O.3     1  UNL1       -0.3358
     12 H           3.3175    2.2099   -0.5921 H       1  UNL1        0.0339
     13 H           3.9048    0.7887   -1.5589 H       1  UNL1        0.0339
     14 H           5.8219   -0.7771    1.3465 H       1  UNL1        0.0312
     15 H           5.5435   -0.7418   -0.4000 H       1  UNL1        0.0312
     16 H           4.2407   -2.6462    0.1354 H       1  UNL1        0.0642
     17 H           3.1519   -1.2617    2.6961 H       1  UNL1        0.0603
     18 H           4.1296   -4.1318    2.1647 H       1  UNL1        0.0693
@<TRIPOS>BOND
     1     2     3    1
     2     3     4    1
     3     2     4    1
     4     4     6    1
     5     6     7    1
     6     8     9    2
     7     9    10    1
     8     7    11    1
     9     2    11    1
    10     1     2    1
    11     4     5    1
    12     7     8    1
    13     3    12    1
    14     3    13    1
    15     6    14    1
    16     6    15    1
    17     7    16    1
    18     8    17    1
    19     9    18    1
