REMARK  Name = 
REMARK  10 active torsions:
REMARK  status: ('A' for Active; 'I' for Inactive)
REMARK    1  A    between atoms: O_1  and  C_2
REMARK    2  A    between atoms: C_2  and  N_12
REMARK    3  A    between atoms: C_3  and  O_4
REMARK    4  A    between atoms: O_4  and  C_5
REMARK    5  A    between atoms: N_12  and  C_13
REMARK    6  A    between atoms: C_16  and  N_17
REMARK    7  A    between atoms: N_17  and  C_18
REMARK    8  A    between atoms: C_18  and  O_19
REMARK    9  A    between atoms: C_20  and  O_21
REMARK   10  A    between atoms: O_21  and  C_22
REMARK                            x       y       z     vdW  Elec       q    Type
REMARK                         _______ _______ _______ _____ _____    ______ ____
ROOT
ATOM      1  C   UNL     1       4.591   0.412  -1.094  0.00  0.00    +0.000 C 
ATOM      2  C   UNL     1       5.398  -0.499  -0.159  0.00  0.00    +0.000 C 
ATOM      3  C   UNL     1       5.041  -1.969  -0.368  0.00  0.00    +0.000 C 
ATOM      4  C   UNL     1       5.280  -2.412  -1.814  0.00  0.00    +0.000 C 
ATOM      5  C   UNL     1       4.672  -1.444  -2.842  0.00  0.00    +0.000 C 
ATOM      6  C   UNL     1       4.939   0.038  -2.544  0.00  0.00    +0.000 C 
ENDROOT
BRANCH   1   7
ATOM      7  N   UNL     1       3.154   0.257  -0.896  0.00  0.00    +0.000 N 
ATOM      8  H   UNL     1       2.577   0.286  -1.736  0.00  0.00    +0.000 HD
BRANCH   7   9
ATOM      9  C   UNL     1       2.393   0.534   0.204  0.00  0.00    +0.000 C 
ATOM     10  C   UNL     1       2.823   0.929   1.407  0.00  0.00    +0.000 C 
BRANCH   9  11
ATOM     11  O   UNL     1       1.049   0.386  -0.037  0.00  0.00    +0.000 OA
ATOM     12  H   UNL     1       0.598   0.531   0.814  0.00  0.00    +0.000 HD
ENDBRANCH   9  11
BRANCH  10  13
ATOM     13  O   UNL     1       1.994   1.228   2.466  0.00  0.00    +0.000 OA
BRANCH  13  14
ATOM     14  C   UNL     1       2.498   2.140   3.368  0.00  0.00    +0.000 A 
ATOM     15  C   UNL     1       3.133   3.312   2.941  0.00  0.00    +0.000 A 
ATOM     16  C   UNL     1       3.646   4.210   3.875  0.00  0.00    +0.000 A 
ATOM     17  C   UNL     1       3.494   3.947   5.235  0.00  0.00    +0.000 A 
ATOM     18 CL   UNL     1       4.122   5.060   6.386  0.00  0.00    +0.000 Cl
ATOM     19  C   UNL     1       2.833   2.796   5.666  0.00  0.00    +0.000 A 
ATOM     20  C   UNL     1       2.330   1.887   4.729  0.00  0.00    +0.000 A 
ENDBRANCH  13  14
ENDBRANCH  10  13
ENDBRANCH   7   9
ENDBRANCH   1   7
BRANCH   4  21
ATOM     21  N   UNL     1       6.712  -2.546  -2.051  0.00  0.00    +0.000 N 
ATOM     22  H   UNL     1       7.195  -1.688  -2.303  0.00  0.00    +0.000 HD
BRANCH  21  23
ATOM     23  C   UNL     1       7.556  -3.584  -1.746  0.00  0.00    +0.000 C 
ATOM     24  C   UNL     1       8.889  -3.525  -1.885  0.00  0.00    +0.000 C 
BRANCH  23  25
ATOM     25  O   UNL     1       7.012  -4.741  -1.248  0.00  0.00    +0.000 OA
ATOM     26  H   UNL     1       6.093  -4.550  -1.030  0.00  0.00    +0.000 HD
ENDBRANCH  23  25
BRANCH  24  27
ATOM     27  O   UNL     1       9.709  -4.587  -1.583  0.00  0.00    +0.000 OA
BRANCH  27  28
ATOM     28  C   UNL     1      11.006  -4.340  -1.208  0.00  0.00    +0.000 A 
ATOM     29  C   UNL     1      11.394  -3.236  -0.444  0.00  0.00    +0.000 A 
ATOM     30  C   UNL     1      12.726  -3.107  -0.033  0.00  0.00    +0.000 A 
ATOM     31  C   UNL     1      13.653  -4.089  -0.372  0.00  0.00    +0.000 A 
ATOM     32 CL   UNL     1      15.283  -3.938   0.156  0.00  0.00    +0.000 Cl
ATOM     33  C   UNL     1      13.268  -5.199  -1.123  0.00  0.00    +0.000 A 
ATOM     34  C   UNL     1      11.940  -5.325  -1.537  0.00  0.00    +0.000 A 
ENDBRANCH  27  28
ENDBRANCH  24  27
ENDBRANCH  21  23
ENDBRANCH   4  21
TORSDOF 10
