REMARK  Name = 
REMARK  1 active torsions:
REMARK  status: ('A' for Active; 'I' for Inactive)
REMARK    1  A    between atoms: C_7  and  C_8
REMARK                            x       y       z     vdW  Elec       q    Type
REMARK                         _______ _______ _______ _____ _____    ______ ____
ROOT
ATOM      1  F   UNL     1       1.902   0.728   0.988  0.00  0.00    +0.000 F 
ATOM      2  C   UNL     1       2.910   0.236   0.178  0.00  0.00    +0.000 C 
ATOM      3  C   UNL     1       3.642   1.191  -0.689  0.00  0.00    +0.000 C 
ATOM      4  C   UNL     1       4.333   0.603   0.515  0.00  0.00    +0.000 C 
ATOM      5 CL   UNL     1       4.669   1.631   1.890  0.00  0.00    +0.000 Cl
ATOM      6  C   UNL     1       5.115  -0.674   0.397  0.00  0.00    +0.000 C 
ATOM      7  C   UNL     1       4.034  -1.753   0.542  0.00  0.00    +0.000 C 
ATOM      8  O   UNL     1       2.885  -1.182  -0.118  0.00  0.00    +0.000 OA
ENDROOT
BRANCH   7   9
ATOM      9  C   UNL     1       3.638  -2.040   1.966  0.00  0.00    +0.000 C 
ATOM     10  C   UNL     1       3.781  -3.218   2.569  0.00  0.00    +0.000 C 
ATOM     11 BR   UNL     1       3.176  -3.587   4.283  0.00  0.00    +0.000 Br
ENDBRANCH   7   9
TORSDOF 1
