REMARK  Name = 
REMARK  1 active torsions:
REMARK  status: ('A' for Active; 'I' for Inactive)
REMARK    1  A    between atoms: C_7  and  C_8
REMARK                            x       y       z     vdW  Elec       q    Type
REMARK                         _______ _______ _______ _____ _____    ______ ____
ROOT
ATOM      1  F   UNL     1       1.838   0.683   0.964  0.00  0.00    +0.000 F 
ATOM      2  C   UNL     1       2.841   0.128   0.191  0.00  0.00    +0.000 C 
ATOM      3  C   UNL     1       3.601   1.021  -0.721  0.00  0.00    +0.000 C 
ATOM      4  C   UNL     1       4.265   0.475   0.521  0.00  0.00    +0.000 C 
ATOM      5 CL   UNL     1       4.622   1.569   1.838  0.00  0.00    +0.000 Cl
ATOM      6  C   UNL     1       5.028  -0.815   0.458  0.00  0.00    +0.000 C 
ATOM      7  C   UNL     1       3.930  -1.887   0.566  0.00  0.00    +0.000 C 
ATOM      8  O   UNL     1       2.775  -1.295  -0.062  0.00  0.00    +0.000 OA
ENDROOT
BRANCH   7   9
ATOM      9  C   UNL     1       3.563  -2.214   1.987  0.00  0.00    +0.000 C 
ATOM     10  C   UNL     1       3.711  -3.416   2.555  0.00  0.00    +0.000 C 
ATOM     11 BR   UNL     1       3.217  -3.786   4.306  0.00  0.00    +0.000 Br
ENDBRANCH   7   9
TORSDOF 1
