@<TRIPOS>MOLECULE
*****
 11 12 0 0 0
SMALL
GASTEIGER

@<TRIPOS>ATOM
      1 F           0.0000    0.0000    0.0000 F       1  UNL1       -0.2083
      2 C           0.0000    0.0000    0.0000 C.3     1  UNL1        0.2409
      3 C           0.0000    0.0000    0.0000 C.3     1  UNL1        0.0829
      4 C           0.0000    0.0000    0.0000 C.3     1  UNL1        0.1264
      5 CL          0.0000    0.0000    0.0000 Cl      1  UNL1       -0.1107
      6 C           0.0000    0.0000    0.0000 C.3     1  UNL1        0.0546
      7 C           0.0000    0.0000    0.0000 C.3     1  UNL1        0.1417
      8 C           0.0000    0.0000    0.0000 C.2     1  UNL1        0.0101
      9 C           0.0000    0.0000    0.0000 C.2     1  UNL1        0.0386
     10 BR          0.0000    0.0000    0.0000 Br      1  UNL1       -0.0488
     11 O           0.0000    0.0000    0.0000 O.3     1  UNL1       -0.3275
@<TRIPOS>BOND
     1     1     2    1
     2     2     3    1
     3     3     4    1
     4     2     4    1
     5     4     5    1
     6     4     6    1
     7     6     7    1
     8     7     8    1
     9     8     9    2
    10     9    10    1
    11     7    11    1
    12     2    11    1
