REMARK  Name = 
REMARK  10 active torsions:
REMARK  status: ('A' for Active; 'I' for Inactive)
REMARK    1  A    between atoms: O_1  and  C_2
REMARK    2  A    between atoms: C_2  and  C_3
REMARK    3  A    between atoms: C_3  and  O_4
REMARK    4  A    between atoms: O_4  and  C_5
REMARK    5  A    between atoms: N_12  and  C_13
REMARK    6  A    between atoms: C_16  and  N_17
REMARK    7  A    between atoms: C_18  and  O_19
REMARK    8  A    between atoms: C_18  and  C_20
REMARK    9  A    between atoms: C_20  and  O_21
REMARK   10  A    between atoms: O_21  and  C_22
REMARK                            x       y       z     vdW  Elec       q    Type
REMARK                         _______ _______ _______ _____ _____    ______ ____
ROOT
ATOM      1  C   UNL     1       4.224   0.009  -1.062  0.00  0.00    +0.000 C 
ATOM      2  C   UNL     1       4.648  -1.340  -1.690  0.00  0.00    +0.000 C 
ATOM      3  C   UNL     1       4.585  -1.351  -3.206  0.00  0.00    +0.000 C 
ATOM      4  C   UNL     1       5.192  -0.107  -3.841  0.00  0.00    +0.000 C 
ATOM      5  C   UNL     1       4.551   1.172  -3.330  0.00  0.00    +0.000 C 
ATOM      6  C   UNL     1       4.602   1.310  -1.823  0.00  0.00    +0.000 C 
ENDROOT
BRANCH   1   8
ATOM      7  C   UNL     1       2.221   0.601   0.014  0.00  0.00    +0.000 C 
ATOM      8  N   UNL     1       2.774  -0.038  -0.956  0.00  0.00    +0.000 NA
BRANCH   7   9
ATOM      9  O   UNL     1       0.885   0.523   0.116  0.00  0.00    +0.000 OA
ATOM     10  H   UNL     1       0.534   0.957   0.907  0.00  0.00    +0.000 HD
ENDBRANCH   7   9
BRANCH   7  11
ATOM     11  C   UNL     1       2.896   1.458   1.078  0.00  0.00    +0.000 C 
BRANCH  11  12
ATOM     12  O   UNL     1       3.188   0.682   2.231  0.00  0.00    +0.000 OA
BRANCH  12  13
ATOM     13  C   UNL     1       3.785   1.357   3.265  0.00  0.00    +0.000 A 
ATOM     14  C   UNL     1       4.153   2.706   3.248  0.00  0.00    +0.000 A 
ATOM     15  C   UNL     1       4.714   3.299   4.381  0.00  0.00    +0.000 A 
ATOM     16  C   UNL     1       4.917   2.544   5.532  0.00  0.00    +0.000 A 
ATOM     17 CL   UNL     1       5.583   3.288   6.931  0.00  0.00    +0.000 Cl
ATOM     18  C   UNL     1       4.575   1.194   5.554  0.00  0.00    +0.000 A 
ATOM     19  C   UNL     1       4.014   0.601   4.418  0.00  0.00    +0.000 A 
ENDBRANCH  12  13
ENDBRANCH  11  12
ENDBRANCH   7  11
ENDBRANCH   1   8
BRANCH   4  20
ATOM     20  N   UNL     1       6.647  -0.109  -3.830  0.00  0.00    +0.000 NA
ATOM     21  C   UNL     1       7.532  -0.073  -2.919  0.00  0.00    +0.000 C 
BRANCH  21  22
ATOM     22  O   UNL     1       7.363   0.014  -1.581  0.00  0.00    +0.000 OA
ATOM     23  H   UNL     1       6.444   0.076  -1.349  0.00  0.00    +0.000 HD
ENDBRANCH  21  22
BRANCH  21  24
ATOM     24  C   UNL     1       8.998  -0.135  -3.179  0.00  0.00    +0.000 C 
BRANCH  24  25
ATOM     25  O   UNL     1       9.457   1.210  -3.142  0.00  0.00    +0.000 OA
BRANCH  25  26
ATOM     26  C   UNL     1      10.811   1.351  -3.111  0.00  0.00    +0.000 A 
ATOM     27  C   UNL     1      11.721   0.290  -3.004  0.00  0.00    +0.000 A 
ATOM     28  C   UNL     1      13.089   0.542  -3.019  0.00  0.00    +0.000 A 
ATOM     29  C   UNL     1      13.547   1.853  -3.134  0.00  0.00    +0.000 A 
ATOM     30 CL   UNL     1      15.237   2.149  -3.192  0.00  0.00    +0.000 Cl
ATOM     31  C   UNL     1      12.647   2.915  -3.206  0.00  0.00    +0.000 A 
ATOM     32  C   UNL     1      11.276   2.660  -3.186  0.00  0.00    +0.000 A 
ENDBRANCH  25  26
ENDBRANCH  24  25
ENDBRANCH  21  24
ENDBRANCH   4  20
TORSDOF 10
