@<TRIPOS>MOLECULE
*****
 18 19 0 0 0
SMALL
GASTEIGER

@<TRIPOS>ATOM
      1 F           1.8091    0.3998    1.0191 F       1  UNL1       -0.2090
      2 C           2.9020    0.0415    0.2516 C.3     1  UNL1        0.2321
      3 C           3.5597    1.0988   -0.5619 C.3     1  UNL1        0.0324
      4 C           4.2572    0.5546    0.6594 C.3     1  UNL1        0.1113
      5 CL          4.4171    1.5743    2.0723 Cl      1  UNL1       -0.1120
      6 C           5.1882   -0.6144    0.5361 C.3     1  UNL1        0.0018
      7 C           4.2274   -1.8063    0.6159 C.3     1  UNL1        0.0829
      8 C           4.7982   -3.0815    0.0817 C.2     1  UNL1       -0.0487
      9 C           4.3263   -3.8032   -0.9413 C.2     1  UNL1       -0.0201
     10 BR          5.0754   -5.4137   -1.4842 Br      1  UNL1       -0.0590
     11 O           3.0480   -1.3602   -0.0868 O.3     1  UNL1       -0.3358
     12 H           3.1387    2.0919   -0.5097 H       1  UNL1        0.0339
     13 H           3.9305    0.8286   -1.5386 H       1  UNL1        0.0339
     14 H           5.9546   -0.6625    1.3139 H       1  UNL1        0.0312
     15 H           5.6950   -0.5795   -0.4383 H       1  UNL1        0.0312
     16 H           3.9257   -1.9740    1.6583 H       1  UNL1        0.0642
     17 H           5.6642   -3.4543    0.6260 H       1  UNL1        0.0603
     18 H           3.4587   -3.5150   -1.5236 H       1  UNL1        0.0693
@<TRIPOS>BOND
     1     2     3    1
     2     3     4    1
     3     2     4    1
     4     4     6    1
     5     6     7    1
     6     8     9    2
     7     9    10    1
     8     7    11    1
     9     2    11    1
    10     1     2    1
    11     4     5    1
    12     7     8    1
    13     3    12    1
    14     3    13    1
    15     6    14    1
    16     6    15    1
    17     7    16    1
    18     8    17    1
    19     9    18    1
