REMARK  Name = 
REMARK  1 active torsions:
REMARK  status: ('A' for Active; 'I' for Inactive)
REMARK    1  A    between atoms: C_7  and  C_8
REMARK                            x       y       z     vdW  Elec       q    Type
REMARK                         _______ _______ _______ _____ _____    ______ ____
ROOT
ATOM      1  F   UNL     1       1.691   0.339   1.040  0.00  0.00    +0.000 F 
ATOM      2  C   UNL     1       2.789  -0.036   0.291  0.00  0.00    +0.000 C 
ATOM      3  C   UNL     1       3.450   0.997  -0.550  0.00  0.00    +0.000 C 
ATOM      4  C   UNL     1       4.139   0.490   0.693  0.00  0.00    +0.000 C 
ATOM      5 CL   UNL     1       4.291   1.552   2.073  0.00  0.00    +0.000 Cl
ATOM      6  C   UNL     1       5.078  -0.677   0.601  0.00  0.00    +0.000 C 
ATOM      7  C   UNL     1       4.124  -1.880   0.669  0.00  0.00    +0.000 C 
ATOM      8  O   UNL     1       2.936  -1.441  -0.021  0.00  0.00    +0.000 OA
ENDROOT
BRANCH   7   9
ATOM      9  C   UNL     1       4.700  -3.136   0.093  0.00  0.00    +0.000 C 
ATOM     10  C   UNL     1       4.199  -3.835  -0.933  0.00  0.00    +0.000 C 
ATOM     11 BR   UNL     1       4.944  -5.416  -1.558  0.00  0.00    +0.000 Br
ENDBRANCH   7   9
TORSDOF 1
