REMARK  Name = 
REMARK  1 active torsions:
REMARK  status: ('A' for Active; 'I' for Inactive)
REMARK    1  A    between atoms: C_7  and  C_8
REMARK                            x       y       z     vdW  Elec       q    Type
REMARK                         _______ _______ _______ _____ _____    ______ ____
ROOT
ATOM      1  F   UNL     1       1.719   0.251   1.043  0.00  0.00    +0.000 F 
ATOM      2  C   UNL     1       2.819  -0.119   0.292  0.00  0.00    +0.000 C 
ATOM      3  C   UNL     1       3.477   0.920  -0.545  0.00  0.00    +0.000 C 
ATOM      4  C   UNL     1       4.168   0.407   0.695  0.00  0.00    +0.000 C 
ATOM      5 CL   UNL     1       4.317   1.464   2.080  0.00  0.00    +0.000 Cl
ATOM      6  C   UNL     1       5.107  -0.757   0.598  0.00  0.00    +0.000 C 
ATOM      7  C   UNL     1       4.155  -1.961   0.661  0.00  0.00    +0.000 C 
ATOM      8  O   UNL     1       2.968  -1.522  -0.029  0.00  0.00    +0.000 OA
ENDROOT
BRANCH   7   9
ATOM      9  C   UNL     1       4.732  -3.217   0.083  0.00  0.00    +0.000 C 
ATOM     10  C   UNL     1       4.238  -3.912  -0.947  0.00  0.00    +0.000 C 
ATOM     11 BR   UNL     1       4.983  -5.493  -1.569  0.00  0.00    +0.000 Br
ENDBRANCH   7   9
TORSDOF 1
