@<TRIPOS>MOLECULE
*****
 18 19 0 0 0
SMALL
GASTEIGER

@<TRIPOS>ATOM
      1 F           1.7805    0.4277   -1.0564 F       1  UNL1       -0.2090
      2 C           2.8216   -0.0398   -0.2760 C.3     1  UNL1        0.2321
      3 C           3.5235    0.9319    0.6044 C.3     1  UNL1        0.0324
      4 C           4.2206    0.3881   -0.6182 C.3     1  UNL1        0.1113
      5 CL          4.4963    1.4441   -1.9843 Cl      1  UNL1       -0.1120
      6 C           5.0673   -0.8447   -0.5021 C.3     1  UNL1        0.0018
      7 C           4.0324   -1.9733   -0.6218 C.3     1  UNL1        0.0829
      8 C           4.4763   -3.2750   -0.0287 C.2     1  UNL1       -0.0487
      9 C           3.8350   -3.9513    0.9339 C.2     1  UNL1       -0.0201
     10 BR          4.3946   -5.5903    1.5950 Br      1  UNL1       -0.0590
     11 O           2.8494   -1.4541    0.0183 O.3     1  UNL1       -0.3358
     12 H           3.8426    0.5974    1.5826 H       1  UNL1        0.0339
     13 H           3.1705    1.9561    0.5832 H       1  UNL1        0.0339
     14 H           5.5650   -0.8605    0.4757 H       1  UNL1        0.0312
     15 H           5.8412   -0.9276   -1.2722 H       1  UNL1        0.0312
     16 H           3.7803   -2.1354   -1.6784 H       1  UNL1        0.0642
     17 H           5.3773   -3.7047   -0.4623 H       1  UNL1        0.0603
     18 H           2.9211   -3.5927    1.3947 H       1  UNL1        0.0693
@<TRIPOS>BOND
     1     1     2    1
     2     2     3    1
     3     3     4    1
     4     2     4    1
     5     4     5    1
     6     4     6    1
     7     6     7    1
     8     7     8    1
     9     8     9    2
    10     9    10    1
    11     7    11    1
    12     2    11    1
    13     3    12    1
    14     3    13    1
    15     6    14    1
    16     6    15    1
    17     7    16    1
    18     8    17    1
    19     9    18    1
