REMARK  Name = 
REMARK  1 active torsions:
REMARK  status: ('A' for Active; 'I' for Inactive)
REMARK    1  A    between atoms: C_7  and  C_8
REMARK                            x       y       z     vdW  Elec       q    Type
REMARK                         _______ _______ _______ _____ _____    ______ ____
ROOT
ATOM      1  F   UNL     1       1.819   0.576  -0.994  0.00  0.00    +0.000 F 
ATOM      2  C   UNL     1       2.861   0.108  -0.215  0.00  0.00    +0.000 C 
ATOM      3  C   UNL     1       3.562   1.080   0.666  0.00  0.00    +0.000 C 
ATOM      4  C   UNL     1       4.260   0.539  -0.557  0.00  0.00    +0.000 C 
ATOM      5 CL   UNL     1       4.530   1.592  -1.927  0.00  0.00    +0.000 Cl
ATOM      6  C   UNL     1       5.107  -0.693  -0.443  0.00  0.00    +0.000 C 
ATOM      7  C   UNL     1       4.074  -1.822  -0.572  0.00  0.00    +0.000 C 
ATOM      8  O   UNL     1       2.892  -1.307   0.073  0.00  0.00    +0.000 OA
ENDROOT
BRANCH   7   9
ATOM      9  C   UNL     1       4.522  -3.126   0.016  0.00  0.00    +0.000 C 
ATOM     10  C   UNL     1       3.877  -3.806   0.975  0.00  0.00    +0.000 C 
ATOM     11 BR   UNL     1       4.433  -5.446   1.636  0.00  0.00    +0.000 Br
ENDBRANCH   7   9
TORSDOF 1
