REMARK  Name = 
REMARK  1 active torsions:
REMARK  status: ('A' for Active; 'I' for Inactive)
REMARK    1  A    between atoms: C_7  and  C_8
REMARK                            x       y       z     vdW  Elec       q    Type
REMARK                         _______ _______ _______ _____ _____    ______ ____
ROOT
ATOM      1  F   UNL     1       1.714   0.596  -1.025  0.00  0.00    +0.000 F 
ATOM      2  C   UNL     1       2.752   0.119  -0.246  0.00  0.00    +0.000 C 
ATOM      3  C   UNL     1       3.452   1.079   0.648  0.00  0.00    +0.000 C 
ATOM      4  C   UNL     1       4.153   0.549  -0.580  0.00  0.00    +0.000 C 
ATOM      5 CL   UNL     1       4.437   1.624  -1.929  0.00  0.00    +0.000 Cl
ATOM      6  C   UNL     1       4.996  -0.687  -0.475  0.00  0.00    +0.000 C 
ATOM      7  C   UNL     1       3.961  -1.816  -0.596  0.00  0.00    +0.000 C 
ATOM      8  O   UNL     1       2.775  -1.297   0.038  0.00  0.00    +0.000 OA
ENDROOT
BRANCH   7   9
ATOM      9  C   UNL     1       4.408  -3.115   0.003  0.00  0.00    +0.000 C 
ATOM     10  C   UNL     1       3.772  -3.793   0.967  0.00  0.00    +0.000 C 
ATOM     11 BR   UNL     1       4.344  -5.427   1.630  0.00  0.00    +0.000 Br
ENDBRANCH   7   9
TORSDOF 1
