@<TRIPOS>MOLECULE
*****
 18 19 0 0 0
SMALL
GASTEIGER

@<TRIPOS>ATOM
      1 F           1.7505    0.5567   -1.1379 F       1  UNL1       -0.2090
      2 C           2.7916    0.1365   -0.3298 C.3     1  UNL1        0.2321
      3 C           3.4376    1.1475    0.5505 C.3     1  UNL1        0.0324
      4 C           4.1838    0.6256   -0.6505 C.3     1  UNL1        0.1113
      5 CL          4.4293    1.6720   -2.0314 Cl      1  UNL1       -0.1120
      6 C           5.0696   -0.5785   -0.5215 C.3     1  UNL1        0.0018
      7 C           4.0766   -1.7207   -0.7589 C.3     1  UNL1        0.0829
      8 C           4.5185   -3.0649   -0.2686 C.2     1  UNL1       -0.0487
      9 C           5.2020   -3.9631   -0.9856 C.2     1  UNL1       -0.0201
     10 BR          5.8274   -3.7356   -2.7244 Br      1  UNL1       -0.0590
     11 O           2.8896   -1.2855   -0.0591 O.3     1  UNL1       -0.3358
     12 H           3.7552    0.8422    1.5396 H       1  UNL1        0.0339
     13 H           3.0464    2.1589    0.5058 H       1  UNL1        0.0339
     14 H           5.4912   -0.6214    0.4925 H       1  UNL1        0.0312
     15 H           5.9001   -0.6004   -1.2338 H       1  UNL1        0.0312
     16 H           3.7969   -1.7723   -1.8181 H       1  UNL1        0.0642
     17 H           4.2242   -3.3341    0.7429 H       1  UNL1        0.0603
     18 H           5.4662   -4.9333   -0.5848 H       1  UNL1        0.0693
@<TRIPOS>BOND
     1     1     2    1
     2     2     3    1
     3     3     4    1
     4     2     4    1
     5     4     5    1
     6     4     6    1
     7     6     7    1
     8     7     8    1
     9     8     9    2
    10     9    10    1
    11     7    11    1
    12     2    11    1
    13     3    12    1
    14     3    13    1
    15     6    14    1
    16     6    15    1
    17     7    16    1
    18     8    17    1
    19     9    18    1
