REMARK  Name = 
REMARK  1 active torsions:
REMARK  status: ('A' for Active; 'I' for Inactive)
REMARK    1  A    between atoms: C_7  and  C_8
REMARK                            x       y       z     vdW  Elec       q    Type
REMARK                         _______ _______ _______ _____ _____    ______ ____
ROOT
ATOM      1  F   UNL     1       1.705   0.584  -1.095  0.00  0.00    +0.000 F 
ATOM      2  C   UNL     1       2.744   0.125  -0.307  0.00  0.00    +0.000 C 
ATOM      3  C   UNL     1       3.392   1.086   0.624  0.00  0.00    +0.000 C 
ATOM      4  C   UNL     1       4.136   0.618  -0.601  0.00  0.00    +0.000 C 
ATOM      5 CL   UNL     1       4.400   1.736  -1.920  0.00  0.00    +0.000 Cl
ATOM      6  C   UNL     1       5.021  -0.591  -0.521  0.00  0.00    +0.000 C 
ATOM      7  C   UNL     1       4.028  -1.736  -0.749  0.00  0.00    +0.000 C 
ATOM      8  O   UNL     1       2.826  -1.302  -0.075  0.00  0.00    +0.000 OA
ENDROOT
BRANCH   7   9
ATOM      9  C   UNL     1       4.468  -3.060  -0.209  0.00  0.00    +0.000 C 
ATOM     10  C   UNL     1       5.142  -3.995  -0.892  0.00  0.00    +0.000 C 
ATOM     11 BR   UNL     1       5.753  -3.857  -2.639  0.00  0.00    +0.000 Br
ENDBRANCH   7   9
TORSDOF 1
