REMARK  Name = 
REMARK  1 active torsions:
REMARK  status: ('A' for Active; 'I' for Inactive)
REMARK    1  A    between atoms: C_7  and  C_8
REMARK                            x       y       z     vdW  Elec       q    Type
REMARK                         _______ _______ _______ _____ _____    ______ ____
ROOT
ATOM      1  F   UNL     1       1.825   0.444  -1.054  0.00  0.00    +0.000 F 
ATOM      2  C   UNL     1       2.864  -0.014  -0.265  0.00  0.00    +0.000 C 
ATOM      3  C   UNL     1       3.506   0.949   0.668  0.00  0.00    +0.000 C 
ATOM      4  C   UNL     1       4.253   0.485  -0.556  0.00  0.00    +0.000 C 
ATOM      5 CL   UNL     1       4.517   1.605  -1.873  0.00  0.00    +0.000 Cl
ATOM      6  C   UNL     1       5.143  -0.720  -0.476  0.00  0.00    +0.000 C 
ATOM      7  C   UNL     1       4.154  -1.868  -0.708  0.00  0.00    +0.000 C 
ATOM      8  O   UNL     1       2.948  -1.440  -0.037  0.00  0.00    +0.000 OA
ENDROOT
BRANCH   7   9
ATOM      9  C   UNL     1       4.599  -3.190  -0.167  0.00  0.00    +0.000 C 
ATOM     10  C   UNL     1       5.278  -4.121  -0.847  0.00  0.00    +0.000 C 
ATOM     11 BR   UNL     1       5.895  -3.977  -2.592  0.00  0.00    +0.000 Br
ENDBRANCH   7   9
TORSDOF 1
