MODEL 1
REMARK VINA RESULT: -1.643273481      0.000      0.000
REMARK  Name = 
REMARK  10 active torsions:
REMARK  status: ('A' for Active; 'I' for Inactive)
REMARK    1  A    between atoms: O_1  and  C_2
REMARK    2  A    between atoms: C_2  and  N_12
REMARK    3  A    between atoms: C_3  and  O_4
REMARK    4  A    between atoms: O_4  and  C_5
REMARK    5  A    between atoms: N_12  and  C_13
REMARK    6  A    between atoms: C_16  and  N_17
REMARK    7  A    between atoms: N_17  and  C_18
REMARK    8  A    between atoms: C_18  and  O_19
REMARK    9  A    between atoms: C_20  and  O_21
REMARK   10  A    between atoms: O_21  and  C_22
REMARK                            x       y       z     vdW  Elec       q    Type
REMARK                         _______ _______ _______ _____ _____    ______ ____
ROOT
ATOM      1  C   UNL     1     -18.515 145.433  28.632  0.00  0.00    +0.000 C 
ATOM      2  C   UNL     1     -19.056 146.738  28.032  0.00  0.00    +0.000 C 
ATOM      3  C   UNL     1     -20.578 146.807  28.129  0.00  0.00    +0.000 C 
ATOM      4  C   UNL     1     -21.062 146.694  29.577  0.00  0.00    +0.000 C 
ATOM      5  C   UNL     1     -20.416 145.519  30.331  0.00  0.00    +0.000 C 
ATOM      6  C   UNL     1     -18.901 145.395  30.120  0.00  0.00    +0.000 C 
ENDROOT
BRANCH   1   7
ATOM      7  N   UNL     1     -19.070 144.259  27.968  0.00  0.00    +0.000 N 
ATOM      8  H   UNL     1     -20.013 143.987  28.245  0.00  0.00    +0.000 HD
BRANCH   7   9
ATOM      9  C   UNL     1     -18.426 143.198  27.396  0.00  0.00    +0.000 C 
ATOM     10  C   UNL     1     -17.410 143.241  26.527  0.00  0.00    +0.000 C 
BRANCH   9  11
ATOM     11  O   UNL     1     -18.922 141.991  27.824  0.00  0.00    +0.000 OA
ATOM     12  H   UNL     1     -18.243 141.604  28.405  0.00  0.00    +0.000 HD
ENDBRANCH   9  11
BRANCH  10  13
ATOM     13  O   UNL     1     -16.782 142.127  26.016  0.00  0.00    +0.000 OA
BRANCH  13  14
ATOM     14  C   UNL     1     -15.525 142.348  25.494  0.00  0.00    +0.000 A 
ATOM     15  C   UNL     1     -14.888 141.390  24.697  0.00  0.00    +0.000 A 
ATOM     16  C   UNL     1     -13.612 141.634  24.194  0.00  0.00    +0.000 A 
ATOM     17  C   UNL     1     -12.989 142.851  24.465  0.00  0.00    +0.000 A 
ATOM     18 CL   UNL     1     -11.417 143.154  23.838  0.00  0.00    +0.000 Cl
ATOM     19  C   UNL     1     -13.634 143.823  25.232  0.00  0.00    +0.000 A 
ATOM     20  C   UNL     1     -14.909 143.573  25.749  0.00  0.00    +0.000 A 
ENDBRANCH  13  14
ENDBRANCH  10  13
ENDBRANCH   7   9
ENDBRANCH   1   7
BRANCH   4  21
ATOM     21  N   UNL     1     -20.787 147.941  30.280  0.00  0.00    +0.000 N 
ATOM     22  H   UNL     1     -21.564 148.321  30.814  0.00  0.00    +0.000 HD
BRANCH  21  23
ATOM     23  C   UNL     1     -19.586 148.550  30.544  0.00  0.00    +0.000 C 
ATOM     24  C   UNL     1     -18.638 148.760  29.619  0.00  0.00    +0.000 C 
BRANCH  23  25
ATOM     25  O   UNL     1     -19.347 148.992  31.821  0.00  0.00    +0.000 OA
ATOM     26  H   UNL     1     -20.095 149.544  32.073  0.00  0.00    +0.000 HD
ENDBRANCH  23  25
BRANCH  24  27
ATOM     27  O   UNL     1     -17.438 149.362  29.916  0.00  0.00    +0.000 OA
BRANCH  27  28
ATOM     28  C   UNL     1     -16.275 148.772  29.489  0.00  0.00    +0.000 A 
ATOM     29  C   UNL     1     -15.717 147.638  30.085  0.00  0.00    +0.000 A 
ATOM     30  C   UNL     1     -14.574 147.050  29.532  0.00  0.00    +0.000 A 
ATOM     31  C   UNL     1     -14.008 147.589  28.379  0.00  0.00    +0.000 A 
ATOM     32 CL   UNL     1     -12.617 146.850  27.689  0.00  0.00    +0.000 Cl
ATOM     33  C   UNL     1     -14.568 148.713  27.773  0.00  0.00    +0.000 A 
ATOM     34  C   UNL     1     -15.706 149.302  28.328  0.00  0.00    +0.000 A 
ENDBRANCH  27  28
ENDBRANCH  24  27
ENDBRANCH  21  23
ENDBRANCH   4  21
TORSDOF 10
ENDMDL
MODEL 2
REMARK VINA RESULT: 0.207737252      3.639      7.004
REMARK  Name = 
REMARK  10 active torsions:
REMARK  status: ('A' for Active; 'I' for Inactive)
REMARK    1  A    between atoms: O_1  and  C_2
REMARK    2  A    between atoms: C_2  and  N_12
REMARK    3  A    between atoms: C_3  and  O_4
REMARK    4  A    between atoms: O_4  and  C_5
REMARK    5  A    between atoms: N_12  and  C_13
REMARK    6  A    between atoms: C_16  and  N_17
REMARK    7  A    between atoms: N_17  and  C_18
REMARK    8  A    between atoms: C_18  and  O_19
REMARK    9  A    between atoms: C_20  and  O_21
REMARK   10  A    between atoms: O_21  and  C_22
REMARK                            x       y       z     vdW  Elec       q    Type
REMARK                         _______ _______ _______ _____ _____    ______ ____
ROOT
ATOM      1  C   UNL     1     -15.507 144.229  25.071  0.00  0.00    +0.000 C 
ATOM      2  C   UNL     1     -15.573 142.696  25.078  0.00  0.00    +0.000 C 
ATOM      3  C   UNL     1     -15.323 142.134  26.476  0.00  0.00    +0.000 C 
ATOM      4  C   UNL     1     -16.330 142.675  27.495  0.00  0.00    +0.000 C 
ATOM      5  C   UNL     1     -16.482 144.203  27.428  0.00  0.00    +0.000 C 
ATOM      6  C   UNL     1     -16.608 144.760  26.003  0.00  0.00    +0.000 C 
ENDROOT
BRANCH   1   7
ATOM      7  N   UNL     1     -14.214 144.719  25.537  0.00  0.00    +0.000 N 
ATOM      8  H   UNL     1     -13.392 144.230  25.184  0.00  0.00    +0.000 HD
BRANCH   7   9
ATOM      9  C   UNL     1     -13.901 145.392  26.684  0.00  0.00    +0.000 C 
ATOM     10  C   UNL     1     -14.622 146.345  27.285  0.00  0.00    +0.000 C 
BRANCH   9  11
ATOM     11  O   UNL     1     -12.712 144.974  27.230  0.00  0.00    +0.000 OA
ATOM     12  H   UNL     1     -12.672 145.353  28.126  0.00  0.00    +0.000 HD
ENDBRANCH   9  11
BRANCH  10  13
ATOM     13  O   UNL     1     -14.263 146.959  28.465  0.00  0.00    +0.000 OA
BRANCH  13  14
ATOM     14  C   UNL     1     -15.256 147.698  29.070  0.00  0.00    +0.000 A 
ATOM     15  C   UNL     1     -15.676 148.924  28.541  0.00  0.00    +0.000 A 
ATOM     16  C   UNL     1     -16.673 149.657  29.181  0.00  0.00    +0.000 A 
ATOM     17  C   UNL     1     -17.270 149.145  30.332  0.00  0.00    +0.000 A 
ATOM     18 CL   UNL     1     -18.505 150.049  31.116  0.00  0.00    +0.000 Cl
ATOM     19  C   UNL     1     -16.878 147.908  30.844  0.00  0.00    +0.000 A 
ATOM     20  C   UNL     1     -15.867 147.178  30.210  0.00  0.00    +0.000 A 
ENDBRANCH  13  14
ENDBRANCH  10  13
ENDBRANCH   7   9
ENDBRANCH   1   7
BRANCH   4  21
ATOM     21  N   UNL     1     -17.625 142.041  27.282  0.00  0.00    +0.000 N 
ATOM     22  H   UNL     1     -17.597 141.043  27.092  0.00  0.00    +0.000 HD
BRANCH  21  23
ATOM     23  C   UNL     1     -18.885 142.517  27.544  0.00  0.00    +0.000 C 
ATOM     24  C   UNL     1     -19.475 143.492  26.835  0.00  0.00    +0.000 C 
BRANCH  23  25
ATOM     25  O   UNL     1     -19.595 141.950  28.572  0.00  0.00    +0.000 OA
ATOM     26  H   UNL     1     -19.489 142.524  29.339  0.00  0.00    +0.000 HD
ENDBRANCH  23  25
BRANCH  24  27
ATOM     27  O   UNL     1     -20.735 143.957  27.129  0.00  0.00    +0.000 OA
BRANCH  27  28
ATOM     28  C   UNL     1     -20.864 145.090  27.893  0.00  0.00    +0.000 A 
ATOM     29  C   UNL     1     -21.022 145.074  29.282  0.00  0.00    +0.000 A 
ATOM     30  C   UNL     1     -21.060 146.279  29.993  0.00  0.00    +0.000 A 
ATOM     31  C   UNL     1     -20.920 147.487  29.315  0.00  0.00    +0.000 A 
ATOM     32 CL   UNL     1     -20.943 148.964  30.196  0.00  0.00    +0.000 Cl
ATOM     33  C   UNL     1     -20.749 147.508  27.931  0.00  0.00    +0.000 A 
ATOM     34  C   UNL     1     -20.717 146.306  27.221  0.00  0.00    +0.000 A 
ENDBRANCH  27  28
ENDBRANCH  24  27
ENDBRANCH  21  23
ENDBRANCH   4  21
TORSDOF 10
ENDMDL
